geometry optimzed in LAMMPS
_audit_creation_date              2020-12-01 
_audit_creation_method            'lammps2cif' 
_symmetry_space_group_name_H-M    'P1' 
_symmetry_Int_Tables_number       1 
_symmetry_cell_setting            triclinic 
loop_ 
_symmetry_equiv_pos_as_xyz 
  x,y,z 
_cell_length_a                    52.0026107 
_cell_length_b                    52.354997564371786 
_cell_length_c                    134.78668831962892 
_cell_angle_alpha                 89.69727854128618 
_cell_angle_beta                  90.65891894917581 
_cell_angle_gamma                 121.67220804463017 
loop_ 
_atom_site_label 
_atom_site_type_symbol 
_atom_site_fract_x 
_atom_site_fract_y 
_atom_site_fract_z 
_atom_site_charge 
O1          O  0.09172614  0.15646903  0.28713013    -0.57500
C2          C  0.04665946  0.16185380  0.30631406     0.75100
O3          O  0.10723502  0.14878017  0.31424530    -0.58700
C4          C  0.11463915  0.17396509  0.28200893     0.75100
C5          C  0.13846670  0.24504691  0.31003268     0.77500
Cd6        Cd  0.10929325  0.18500668  0.30237603     1.37500
O7          O  0.05836549  0.17371622  0.29807589    -0.57500
O8          O  0.12469613  0.23802656  0.30177091    -0.56300
C9          C  0.12463598  0.14313943  0.30956227     0.77400
O10         O  0.14143147  0.22510011  0.31426644    -0.58700
O11         O  0.06411889  0.16121626  0.31277641    -0.57200
O12         O  0.13473460  0.19817170  0.28614547    -0.57200
O13         O  0.13867720  0.16018335  0.30233802    -0.56300
O14         O  0.24469614  0.50313911  0.35845211    -0.57500
C15         C  0.17421163  0.48851576  0.37528731     0.75100
O16         O  0.14872931  0.49333341  0.35304036    -0.58700
C17         C  0.25425940  0.52249009  0.35155064     0.75100
C18         C  0.17590367  0.42925163  0.34581796     0.77500
Cd19       Cd  0.19062582  0.48461924  0.35519637     1.37500
O20         O  0.20080813  0.50567354  0.37213115    -0.57500
O21         O  0.18638546  0.43524424  0.35458080    -0.56300
C22         C  0.16360104  0.51608274  0.34754811     0.77400
O23         O  0.17038791  0.44774621  0.34179273    -0.58700
O24         O  0.15613893  0.46755024  0.36951033    -0.57200
O25         O  0.23445776  0.52423758  0.34659626    -0.57200
O26         O  0.18898981  0.52145410  0.34461830    -0.56300
O27         O  0.20075475  0.73129738  0.34819574    -0.57500
C28         C  0.22899276  0.78305308  0.37945306     0.75100
O29         O  0.26397325  0.81435102  0.35849292    -0.58700
C30         C  0.18161663  0.71035867  0.35365141     0.75100
C31         C  0.17299099  0.79289862  0.35072532     0.77500
Cd32       Cd  0.21090923  0.77296054  0.35882682     1.37500
O33         O  0.22348487  0.75954539  0.37491371    -0.57500
O34         O  0.16829933  0.78086677  0.35920247    -0.56300
C35         C  0.27190594  0.80232060  0.35209020     0.77400
O36         O  0.19594710  0.79685685  0.34619668    -0.58700
O37         O  0.22365476  0.80073652  0.37469355    -0.57200
O38         O  0.17472720  0.71823951  0.36157848    -0.57200
O39         O  0.25101592  0.77868065  0.34800552    -0.56300
O40         O  0.98735040  0.87363568  0.29206218    -0.57500
C41         C  0.03866993  0.92608120  0.31117621     0.75100
O42         O  0.93911268  0.83686586  0.31026638    -0.58700
C43         C  0.97332857  0.84662289  0.28910725     0.75100
C44         C  0.02480415  0.83465890  0.31781931     0.77500
Cd45       Cd  0.99474067  0.86279207  0.30919589     1.37500
O46         O  0.03775113  0.91165077  0.30352582    -0.57500
O47         O  0.03050162  0.84561963  0.30918554    -0.56300
C48         C  0.93907954  0.85478912  0.31650994     0.77400
O49         O  0.00339419  0.83452514  0.32224632    -0.58700
O50         O  0.01981417  0.91106842  0.31787401    -0.57200
O51         O  0.97091630  0.82719091  0.29529730    -0.57200
O52         O  0.96439085  0.87374548  0.32031346    -0.56300
O53         O  0.46387967  0.79278481  0.36658452    -0.57500
C54         C  0.47281764  0.73841724  0.38361294     0.75100
O55         O  0.46996667  0.70759913  0.36148851    -0.58700
C56         C  0.44938340  0.78659525  0.35843384     0.75100
C57         C  0.54322386  0.80115627  0.35594421     0.77500
Cd58       Cd  0.48396768  0.76017886  0.36350869     1.37500
O59         O  0.45524193  0.74429534  0.37898167    -0.57500
O60         O  0.53336691  0.80876782  0.36317148    -0.56300
C61         C  0.45220018  0.70225086  0.35422179     0.77400
O62         O  0.52694308  0.77433057  0.35302170    -0.58700
O63         O  0.49724839  0.74551053  0.37931719    -0.57200
O64         O  0.45183077  0.76908150  0.35264948    -0.57200
O65         O  0.45141259  0.72433668  0.35077830    -0.56300
O66         O  0.76609697  0.98389258  0.29012852    -0.57500
C67         C  0.80258300  0.93076878  0.31080051     0.75100
O68         O  0.80825303  0.02492272  0.30530972    -0.58700
C69         C  0.78644956  0.98386570  0.28504427     0.75100
C70         C  0.72347475  0.94129075  0.31521069     0.77500
Cd71       Cd  0.78082229  0.96967536  0.30576726     1.37500
O72         O  0.78861025  0.92744112  0.30267613    -0.57500
O73         O  0.72753848  0.93115524  0.30727542    -0.56300
C74         C  0.82765962  0.02821818  0.31174846     0.77400
O75         O  0.74523335  0.96627621  0.31823578    -0.58700
O76         O  0.80575432  0.95144770  0.31644243    -0.57200
O77         O  0.80196762  0.97483924  0.28938468    -0.57200
O78         O  0.82279888  0.00483857  0.31621850    -0.56300
O79         O  0.11877566  0.07904321  0.21227462    -0.57500
C80         C  0.09823670  0.02246178  0.19302668     0.75100
O81         O  0.11811351  0.12334476  0.19352013    -0.58700
C82         C  0.13802649  0.10547979  0.21508502     0.75100
C83         C  0.18870135  0.10307096  0.18449778     0.77500
Cd84       Cd  0.13430223  0.08654818  0.19494680     1.37500
O85         O  0.11412470  0.03429945  0.20077710    -0.57500
O86         O  0.18316533  0.09036471  0.19287113    -0.56300
C87         C  0.09612202  0.10731555  0.18773283     0.77400
O88         O  0.17023677  0.11010368  0.18135493    -0.58700
O89         O  0.10024616  0.04027358  0.18628497    -0.57200
O90         O  0.15713383  0.12261093  0.20870767    -0.57200
O91         O  0.09345432  0.08316900  0.18477920    -0.56300
O92         O  0.40015791  0.16833378  0.11230596    -0.57500
C93         C  0.43731784  0.23527124  0.13358141     0.75100
O94         O  0.38570075  0.14435554  0.14459274    -0.58700
C95         C  0.40041600  0.14454324  0.11085507     0.75100
C96         C  0.47205262  0.17570319  0.13157140     0.77500
Cd97       Cd  0.41548543  0.17292639  0.12982578     1.37500
O98         O  0.42486487  0.22329117  0.12535660    -0.57500
O99         O  0.46522814  0.18637017  0.12428210    -0.56300
C100        C  0.36141792  0.14190634  0.14145733     0.77400
O101        O  0.45219255  0.16281610  0.13824701    -0.58700
O102        O  0.43861382  0.21821125  0.13996035    -0.57200
O103        O  0.40504697  0.13276806  0.11836432    -0.57200
O104        O  0.36205861  0.15179307  0.13283243    -0.56300
O105        O  0.85952805  0.77209616  0.21799621    -0.57500
C106        C  0.82596695  0.83020338  0.19835891     0.75100
O107        O  0.88890356  0.82672814  0.19150021    -0.58700
C108        C  0.86388590  0.79377079  0.22340487     0.75100
C109        C  0.80847839  0.73511831  0.19323217     0.77500
Cd110      Cd  0.84881161  0.79183044  0.20277356     1.37500
O111        O  0.81680366  0.81350508  0.20597315    -0.57500
O112        O  0.79971205  0.74402604  0.20040833    -0.56300
C113        C  0.91032153  0.82654997  0.19596771     0.77400
O114        O  0.83602161  0.75150038  0.19097416    -0.58700
O115        O  0.84424562  0.82793713  0.19289087    -0.57200
O116        O  0.85823866  0.81234085  0.21948252    -0.57200
O117        O  0.90296891  0.80815449  0.20305956    -0.56300
O118        O  0.67663400  0.48512863  0.13305598    -0.57500
C119        C  0.63182753  0.51691683  0.11939647     0.75100
O120        O  0.59529325  0.46038288  0.13289985    -0.58700
C121        C  0.67550289  0.47127143  0.14091646     0.75100
C122        C  0.67334032  0.55712250  0.15000762     0.77500
Cd123      Cd  0.64289747  0.50188270  0.13875517     1.37500
O124        O  0.65585456  0.51707896  0.12129689    -0.57500
O125        O  0.68515085  0.55210243  0.14273195    -0.56300
C126        C  0.58282609  0.45086185  0.14120228     0.77400
O127        O  0.64640425  0.53680858  0.15198749    -0.58700
O128        O  0.61462702  0.51254617  0.12661937    -0.57200
O129        O  0.65993053  0.47222426  0.14787129    -0.57200
O130        O  0.59784516  0.46571581  0.14879092    -0.56300
O131        O  0.70701024  0.25117151  0.12710154    -0.57500
C132        C  0.78902994  0.30197322  0.11762662     0.75100
O133        O  0.75430757  0.31755542  0.14755235    -0.58700
C134        C  0.69128735  0.24524430  0.13483918     0.75100
C135        C  0.77800630  0.24928425  0.14672777     0.77500
Cd136      Cd  0.75628537  0.28191324  0.13577359     1.37500
O137        O  0.76412342  0.27712315  0.11823004    -0.57500
O138        O  0.76332835  0.24037113  0.13865910    -0.56300
C139        C  0.75640582  0.33518845  0.14067703     0.77400
O140        O  0.78471703  0.27504213  0.14970833    -0.58700
O141        O  0.80037919  0.31620088  0.12566828    -0.57200
O142        O  0.70571968  0.25492774  0.14292467    -0.57200
O143        O  0.76134072  0.32938145  0.13208797    -0.56300
O144        O  0.85934021  0.07304905  0.21161098    -0.57500
C145        C  0.90321549  0.09889523  0.18916511     0.75100
O146        O  0.80446951  0.02110718  0.19689981    -0.58700
C147        C  0.83529150  0.06696230  0.21594228     0.75100
C148        C  0.82151852  0.11136714  0.18559104     0.77500
Cd149      Cd  0.84191058  0.07520125  0.19487304     1.37500
O150        O  0.89728194  0.10894557  0.19677856    -0.57500
O151        O  0.84088684  0.12145163  0.19254354    -0.56300
C152        C  0.81570696  0.01287251  0.19029121     0.77400
O153        O  0.81079256  0.08424239  0.18319229    -0.58700
O154        O  0.88090364  0.07970146  0.18404436    -0.57200
O155        O  0.81502585  0.06681632  0.21059412    -0.57200
O156        O  0.83603863  0.03340999  0.18500284    -0.56300
O157        O  0.10603144  0.58540868  0.45740913    -0.57500
C158        C  0.09981894  0.52830622  0.43854572     0.75100
O159        O  0.11959592  0.52529947  0.47028093    -0.58700
C160        C  0.11829929  0.59179694  0.46595221     0.75100
C161        C  0.02507054  0.50867250  0.46557070     0.77500
Cd162      Cd  0.08577338  0.53101004  0.45890159     1.37500
O163        O  0.11658672  0.55066773  0.44403820    -0.57500
O164        O  0.03643292  0.52719657  0.45850196    -0.56300
C165        C  0.11896747  0.50423998  0.46549835     0.77400
O166        O  0.04068004  0.49835814  0.46890602    -0.58700
O167        O  0.07459061  0.50852416  0.44212107    -0.57200
O168        O  0.11454660  0.57001243  0.47119932    -0.57200
O169        O  0.09978334  0.49278542  0.45850200    -0.56300
O170        O  0.80433848  0.49996126  0.52441116    -0.57500
C171        C  0.76115460  0.39974381  0.51091451     0.75100
O172        O  0.76912619  0.49577876  0.50483149    -0.58700
C173        C  0.77959282  0.48499038  0.52901217     0.75100
C174        C  0.84673890  0.48493545  0.50204827     0.77500
Cd175      Cd  0.78801149  0.46376415  0.51026498     1.37500
O176        O  0.77498441  0.41623711  0.51834577    -0.57500
O177        O  0.83928285  0.47285567  0.51052091    -0.56300
C178        C  0.74719195  0.47531687  0.49986970     0.77400
O179        O  0.82797238  0.48972091  0.49769507    -0.58700
O180        O  0.76076744  0.41304322  0.50310482    -0.57200
O181        O  0.76040309  0.45974084  0.52535046    -0.57200
O182        O  0.74713157  0.45140074  0.49849116    -0.56300
O183        O  0.33513703  0.54228007  0.45710078    -0.57500
C184        C  0.40077698  0.60209081  0.44290543     0.75100
O185        O  0.42647576  0.63114276  0.46550406    -0.58700
C186        C  0.32308615  0.54136795  0.46531582     0.75100
C187        C  0.40888837  0.54158453  0.47078298     0.77500
Cd188      Cd  0.38747510  0.57810334  0.46269322     1.37500
O189        O  0.37651794  0.59510487  0.44725815    -0.57500
O190        O  0.39567372  0.53553927  0.46241482    -0.56300
C191        C  0.41087139  0.63648219  0.47128388     0.77400
O192        O  0.41431783  0.56564756  0.47485021    -0.58700
O193        O  0.41789274  0.59505262  0.44730670    -0.57200
O194        O  0.34094524  0.55651721  0.47233869    -0.57200
O195        O  0.38585205  0.61412533  0.47397889    -0.56300
O196        O  0.49456304  0.36632274  0.53363742    -0.57500
C197        C  0.53779465  0.40896956  0.51043442     0.75100
O198        O  0.44304070  0.31642655  0.51733877    -0.58700
C199        C  0.46998323  0.35785563  0.53806236     0.75100
C200        C  0.44772333  0.40112824  0.50932517     0.77500
Cd201      Cd  0.47680170  0.37158552  0.51725228     1.37500
O202        O  0.53086256  0.41179833  0.51918705    -0.57500
O203        O  0.46647093  0.41203434  0.51645126    -0.56300
C204        C  0.45889994  0.31165402  0.51148538     0.77400
O205        O  0.44087880  0.37545627  0.50627479    -0.58700
O206        O  0.51651528  0.38973647  0.50497902    -0.57200
O207        O  0.44970243  0.35884737  0.53310279    -0.57200
O208        O  0.48064619  0.33448606  0.50741345    -0.56300
O209        O  0.33307435  0.85115933  0.45218509    -0.57500
C210        C  0.38234620  0.80532385  0.47061197     0.75100
O211        O  0.36056379  0.87639405  0.47844631    -0.58700
C212        C  0.33306815  0.83242249  0.44627518     0.75100
C213        C  0.29116353  0.79534395  0.47442765     0.77500
Cd214      Cd  0.35065625  0.83591649  0.46691408     1.37500
O215        O  0.38678424  0.82049198  0.46276477    -0.57500
O216        O  0.29591868  0.81323578  0.46736507    -0.56300
C217        C  0.38726918  0.89466927  0.47566533     0.77400
O218        O  0.31430244  0.79843410  0.47878520    -0.58700
O219        O  0.36383737  0.80494816  0.47670261    -0.57200
O220        O  0.34312850  0.81676726  0.44973976    -0.57200
O221        O  0.39652117  0.88641901  0.46845482    -0.56300
O222        O  0.54525973  0.13249498  0.54553717    -0.57500
C223        C  0.51364329  0.16140540  0.52226671     0.75100
O224        O  0.59060117  0.16459626  0.51507732    -0.58700
C225        C  0.56913424  0.13193806  0.54694560     0.75100
C226        C  0.51805800  0.07825168  0.51718419     0.77500
Cd227      Cd  0.54916345  0.13529317  0.52716176     1.37500
O228        O  0.51042301  0.14883538  0.53061738    -0.57500
O229        O  0.50603081  0.08474244  0.52403626    -0.56300
C230        C  0.60566147  0.18600230  0.52113613     0.77400
O231        O  0.54567135  0.09714582  0.51553494    -0.58700
O232        O  0.53255136  0.16131149  0.51650720    -0.57200
O233        O  0.58148143  0.12947683  0.53926772    -0.57200
O234        O  0.59461687  0.18315143  0.52966504    -0.56300
O235        O  0.12502957  0.62351994  0.95358182    -0.57500
C236        C  0.14848271  0.60321121  0.97670807     0.75100
O237        O  0.12733788  0.67845966  0.96695596    -0.58700
C238        C  0.10606056  0.62861613  0.94951120     0.75100
C239        C  0.05468898  0.58896796  0.98142729     0.77500
Cd240      Cd  0.11046272  0.62573342  0.97084289     1.37500
O241        O  0.14973905  0.62511076  0.98110259    -0.57500
O242        O  0.06154193  0.57984868  0.97384000    -0.56300
C243        C  0.14849228  0.68942687  0.97333411     0.77400
O244        O  0.07291888  0.61600864  0.98389718    -0.58700
O245        O  0.12934815  0.59146577  0.96968814    -0.57200
O246        O  0.08786968  0.63022440  0.95527366    -0.57200
O247        O  0.14874920  0.67115469  0.97945053    -0.56300
O248        O  0.82780162  0.41304558  0.04922173    -0.57500
C249        C  0.78665991  0.43901741  0.02838585     0.75100
O250        O  0.85427240  0.41689390  0.01789493    -0.58700
C251        C  0.83074534  0.39053517  0.05001229     0.75100
C252        C  0.76661932  0.34928119  0.02737362     0.77500
Cd253      Cd  0.81790627  0.40753340  0.03128414     1.37500
O254        O  0.79987864  0.44096074  0.03655981    -0.57500
O255        O  0.77231849  0.36225016  0.03569104    -0.56300
C256        C  0.87438850  0.44233297  0.02128302     0.77400
O257        O  0.78562702  0.36303100  0.02052022    -0.58700
O258        O  0.78950784  0.42413024  0.02160938    -0.57200
O259        O  0.83047814  0.37774329  0.04201956    -0.57200
O260        O  0.86863531  0.45023768  0.02938970    -0.56300
O261        O  0.41159964  0.89418694  0.93196244    -0.57500
C262        C  0.35337864  0.85334933  0.95586441     0.75100
O263        O  0.40943431  0.84029955  0.94557745    -0.58700
C264        C  0.43818945  0.90061620  0.93005947     0.75100
C265        C  0.43778643  0.94086244  0.96186730     0.77500
Cd266      Cd  0.41576509  0.88756334  0.94997574     1.37500
O267        O  0.36062444  0.86734213  0.94766882    -0.57500
O268        O  0.41901655  0.93423686  0.95482275    -0.56300
C269        C  0.42645874  0.83940418  0.95215501     0.77400
O270        O  0.44848061  0.92410982  0.96293044    -0.58700
O271        O  0.37484745  0.85585295  0.96114214    -0.57200
O272        O  0.45521766  0.90475639  0.93744599    -0.57200
O273        O  0.43934063  0.86149242  0.95811389    -0.56300
O274        O  0.53757303  0.16748679  0.03192853    -0.57500
C275        C  0.45136678  0.12385988  0.04241793     0.75100
O276        O  0.47286040  0.17941671  0.01557544    -0.58700
C277        C  0.55101640  0.18351578  0.02442487     0.75100
C278        C  0.47005354  0.09730264  0.01190039     0.77500
Cd279      Cd  0.48626023  0.14707876  0.02492509     1.37500
O280        O  0.47786593  0.12854113  0.04197847    -0.57500
O281        O  0.48613672  0.10257890  0.01961838    -0.56300
C282        C  0.47705602  0.19606921  0.02300647     0.77400
O283        O  0.46006725  0.11447895  0.01033245    -0.58700
O284        O  0.44012959  0.12694485  0.03445663    -0.57200
O285        O  0.53449048  0.18173279  0.01717818    -0.57200
O286        O  0.48463981  0.18937251  0.03108788    -0.56300
O287        O  0.36713837  0.55830447  0.94998835    -0.57500
C288        C  0.39413678  0.63643016  0.96258521     0.75100
O289        O  0.31389679  0.54426094  0.97318702    -0.58700
C290        C  0.33888742  0.53975841  0.94943291     0.75100
C291        C  0.40404806  0.55611979  0.97795695     0.77500
Cd292      Cd  0.36634188  0.57350790  0.96744892     1.37500
O293        O  0.38022517  0.61580318  0.95623120    -0.57500
O294        O  0.41134013  0.56900565  0.96961355    -0.56300
C295        C  0.31479076  0.56580151  0.97774255     0.77400
O296        O  0.37897520  0.55044793  0.98129728    -0.58700
O297        O  0.39677174  0.62817135  0.97117975    -0.57200
O298        O  0.32424280  0.53566646  0.95730534    -0.57200
O299        O  0.34035905  0.58987618  0.97841694    -0.56300
O300        O  0.52911314  0.41835681  0.03385460    -0.57500
C301        C  0.57018446  0.49047023  0.04808894     0.75100
O302        O  0.61371750  0.48971283  0.03197020    -0.58700
C303        C  0.52698727  0.40635177  0.02551292     0.75100
C304        C  0.53169382  0.49792395  0.01731136     0.77500
Cd305      Cd  0.56061434  0.47067870  0.02787384     1.37500
O306        O  0.54836008  0.46463499  0.04564269    -0.57500
O307        O  0.51890042  0.47864723  0.02408733    -0.56300
C308        C  0.61986477  0.48003508  0.02436868     0.77400
O309        O  0.55864186  0.50557685  0.01544477    -0.58700
O310        O  0.58592253  0.50768022  0.04109032    -0.57200
O311        O  0.53909632  0.42408507  0.01828133    -0.57200
O312        O  0.59940196  0.46834243  0.01774200    -0.56300
O313        O  0.12479300  0.08540797  0.69824160    -0.57500
C314        C  0.15412917  0.03289211  0.71117582     0.75100
O315        O  0.10538755  0.00613049  0.68160139    -0.58700
C316        C  0.11017450  0.08327853  0.69036935     0.75100
C317        C  0.19386187  0.08461554  0.68083948     0.77500
Cd318      Cd  0.13974384  0.04987915  0.69252609     1.37500
O319        O  0.15019651  0.05481585  0.71061374    -0.57500
O320        O  0.18696468  0.09573138  0.68786957    -0.56300
C321        C  0.08654693  0.99211093  0.68847027     0.77400
O322        O  0.17646338  0.05661136  0.67944304    -0.58700
O323        O  0.15495604  0.02141209  0.70302771    -0.57200
O324        O  0.10950802  0.06599239  0.68372344    -0.57200
O325        O  0.09309998  0.00448529  0.69690492    -0.56300
O326        O  0.40666941  0.26653136  0.61150980    -0.57500
C327        C  0.47137982  0.24656398  0.63343608     0.75100
O328        O  0.43989831  0.31321563  0.62455532    -0.58700
C329        C  0.42741589  0.26774225  0.60630551     0.75100
C330        C  0.37143201  0.22167610  0.63777459     0.77500
Cd331      Cd  0.42740755  0.26166423  0.62760278     1.37500
O332        O  0.45021422  0.23025854  0.62737932    -0.57500
O333        O  0.38096318  0.21260800  0.63087856    -0.56300
C334        C  0.45779620  0.32450816  0.63189318     0.77400
O335        O  0.38706896  0.24944143  0.63967246    -0.58700
O336        O  0.47144595  0.26895960  0.63691349    -0.57200
O337        O  0.44627247  0.26348676  0.61085610    -0.57200
O338        O  0.45873298  0.30623809  0.63785068    -0.56300
O339        O  0.69907642  0.52500105  0.59601668    -0.57500
C340        C  0.65173917  0.50301977  0.62080691     0.75100
O341        O  0.74458568  0.51716314  0.62205147    -0.58700
C342        C  0.72595015  0.54045166  0.59290197     0.75100
C343        C  0.73687389  0.59172377  0.62314937     0.77500
Cd344      Cd  0.71280980  0.53417459  0.61366097     1.37500
O345        O  0.65877954  0.51813701  0.61286824    -0.57500
O346        O  0.72323156  0.58587646  0.61486534    -0.56300
C347        C  0.73470514  0.49400060  0.61665639     0.77400
O348        O  0.74134349  0.57184090  0.62663802    -0.58700
O349        O  0.67290668  0.50264021  0.62536486    -0.57200
O350        O  0.74636147  0.55529640  0.59936066    -0.57200
O351        O  0.71482456  0.48956595  0.61026378    -0.56300
O352        O  0.84977711  0.83202243  0.68782874    -0.57500
C353        C  0.77350444  0.80730504  0.69762964     0.75100
O354        O  0.78407989  0.85319703  0.68022410    -0.58700
C355        C  0.86729894  0.84497393  0.68060350     0.75100
C356        C  0.77759624  0.76610361  0.66614076     0.77500
Cd357      Cd  0.80268200  0.81907917  0.67866080     1.37500
O358        O  0.79843654  0.80871684  0.69659088    -0.57500
O359        O  0.78783887  0.76742738  0.67478113    -0.56300
C360        C  0.80249438  0.87300431  0.67431082     0.77400
O361        O  0.77665855  0.78874030  0.66337865    -0.58700
O362        O  0.76091010  0.80900865  0.68975826    -0.57200
O363        O  0.85484665  0.84524706  0.67252858    -0.57200
O364        O  0.81903596  0.86649873  0.66948235    -0.56300
O365        O  0.70824468  0.23476850  0.61066587    -0.57500
C366        C  0.74064708  0.31024089  0.62512190     0.75100
O367        O  0.65836962  0.21506756  0.63420612    -0.58700
C368        C  0.68202372  0.21138577  0.61112104     0.75100
C369        C  0.75004830  0.23154294  0.63955497     0.77500
Cd370      Cd  0.71106716  0.24653334  0.62872530     1.37500
O371        O  0.73305878  0.29182438  0.61800939    -0.57500
O372        O  0.75337519  0.23747340  0.63039068    -0.56300
C373        C  0.65613266  0.23653552  0.63735971     0.77400
O374        O  0.72814341  0.23140863  0.64356812    -0.58700
O375        O  0.73635151  0.29929778  0.63376256    -0.57200
O376        O  0.67071174  0.20359368  0.61966147    -0.57200
O377        O  0.68014870  0.26217085  0.63747067    -0.56300
O378        O  0.90649912  0.15498676  0.70560561    -0.57500
C379        C  0.87619255  0.08978428  0.68330438     0.75100
O380        O  0.90871256  0.18259078  0.67371802    -0.58700
C381        C  0.93199217  0.17888834  0.70700400     0.75100
C382        C  0.96972465  0.15681522  0.68518479     0.77500
Cd383      Cd  0.91343822  0.15311403  0.68757470     1.37500
O384        O  0.87354984  0.10018708  0.69144586    -0.57500
O385        O  0.96145197  0.16860961  0.67859872    -0.56300
C386        C  0.88582624  0.18158654  0.67737380     0.77400
O387        O  0.95219666  0.14414388  0.69239397    -0.58700
O388        O  0.89437523  0.10878530  0.67713655    -0.57200
O389        O  0.94684976  0.19242697  0.69932721    -0.57200
O390        O  0.87715256  0.16876755  0.68570116    -0.56300
O391        O  0.18882695  0.73994386  0.85721836    -0.57500
C392        C  0.12947365  0.69151847  0.87772355     0.75100
O393        O  0.10065827  0.70623362  0.84469102    -0.58700
C394        C  0.19683897  0.72930909  0.85032276     0.75100
C395        C  0.11075799  0.63807949  0.85142453     0.77500
Cd396      Cd  0.13448221  0.69993344  0.85637112     1.37500
O397        O  0.15302866  0.69751303  0.87307781    -0.57500
O398        O  0.12654667  0.65876511  0.84529646    -0.56300
C399        C  0.11034018  0.73327099  0.84694435     0.77400
O400        O  0.10228172  0.64564240  0.85903355    -0.58700
O401        O  0.10885114  0.69156916  0.87262691    -0.57200
O402        O  0.17610383  0.70549720  0.84628558    -0.57200
O403        O  0.12957936  0.74411097  0.85392604    -0.56300
O404        O  0.01204528  0.88274591  0.78702828    -0.57500
C405        C  0.09927249  0.93170518  0.77679281     0.75100
O406        O  0.05934314  0.95445646  0.78964616    -0.58700
C407        C  0.99831835  0.88295198  0.79471460     0.75100
C408        C  0.07597465  0.87439304  0.80602305     0.77500
Cd409      Cd  0.06297419  0.91255131  0.79431533     1.37500
O410        O  0.07346192  0.90767872  0.77678037    -0.57500
O411        O  0.06542685  0.86792723  0.79727252    -0.56300
C412        C  0.07300264  0.97120800  0.79700209     0.77400
O413        O  0.08228468  0.89975472  0.80931103    -0.58700
O414        O  0.10957685  0.94432078  0.78511457    -0.57200
O415        O  0.01439482  0.89503676  0.80238807    -0.57200
O416        O  0.08203157  0.96053138  0.80375118    -0.56300
O417        O  0.78112505  0.93435723  0.78036593    -0.57500
C418        C  0.73758813  0.84997722  0.76615613     0.75100
O419        O  0.80028900  0.88203953  0.78159204    -0.58700
C420        C  0.79163133  0.94385446  0.78901321     0.75100
C421        C  0.69911789  0.86348761  0.79526797     0.77500
Cd422      Cd  0.75415828  0.88036639  0.78504782     1.37500
O423        O  0.74080038  0.87561592  0.76710221    -0.57500
O424        O  0.70620017  0.87747753  0.78710655    -0.56300
C425        C  0.80014544  0.86713320  0.78902922     0.77400
O426        O  0.71682469  0.85551223  0.79854957    -0.58700
O427        O  0.73937505  0.83764089  0.77401673    -0.57200
O428        O  0.78378217  0.92415169  0.79568661    -0.57200
O429        O  0.77830361  0.85807778  0.79501290    -0.56300
O430        O  0.47914170  0.82341921  0.86343243    -0.57500
C431        C  0.43715948  0.74753257  0.85000043     0.75100
O432        O  0.43397581  0.83050931  0.84140329    -0.58700
C433        C  0.47369632  0.84434918  0.86335241     0.75100
C434        C  0.52120961  0.83122251  0.83470946     0.77500
Cd435      Cd  0.46622590  0.81039789  0.84566996     1.37500
O436        O  0.44697763  0.76699940  0.85685456    -0.57500
O437        O  0.51741924  0.82062907  0.84336678    -0.56300
C438        C  0.41264588  0.80620885  0.83775523     0.77400
O439        O  0.50015825  0.83408998  0.83122635    -0.58700
O440        O  0.44257144  0.75737852  0.84120334    -0.57200
O441        O  0.46701771  0.85074288  0.85503300    -0.57200
O442        O  0.41791813  0.78544485  0.83655370    -0.56300
O443        O  0.04386627  0.19932574  0.77579916    -0.57500
C444        C  0.06078283  0.15481929  0.79529951     0.75100
O445        O  0.04362396  0.22557034  0.80841131    -0.58700
C446        C  0.02487566  0.20741843  0.77463571     0.75100
C447        C  0.97336954  0.14716358  0.79759604     0.77500
Cd448      Cd  0.03620570  0.19283018  0.79419178     1.37500
O449        O  0.06115857  0.16767103  0.78725468    -0.57500
O450        O  0.98159708  0.16704302  0.79099840    -0.56300
C451        C  0.07130245  0.24463972  0.80700029     0.77400
O452        O  0.99396809  0.14975962  0.80337144    -0.58700
O453        O  0.05031127  0.16065196  0.80277306    -0.57200
O454        O  0.01479698  0.21224444  0.78245399    -0.57200
O455        O  0.08260407  0.24082588  0.79930455    -0.56300
O456        O  0.21346107  0.46908432  0.88133606    -0.57500
C457        C  0.17697370  0.49589057  0.85868846     0.75100
O458        O  0.26442472  0.51306764  0.85363844    -0.58700
C459        C  0.23885033  0.47155165  0.88274720     0.75100
C460        C  0.19227694  0.42019859  0.85294912     0.77500
Cd461      Cd  0.21874809  0.47690417  0.86327353     1.37500
O462        O  0.17814786  0.48642689  0.86726231    -0.57500
O463        O  0.18065113  0.42372489  0.86062000    -0.56300
C464        C  0.27225262  0.53415051  0.85985759     0.77400
O465        O  0.21763169  0.44248346  0.85037869    -0.58700
O466        O  0.19421251  0.49541639  0.85225087    -0.57200
O467        O  0.25334179  0.47308666  0.87504409    -0.57200
O468        O  0.25526658  0.52829727  0.86723401    -0.56300
C469        C  0.08937108  0.26953112  0.81409534    -0.01000
C470        C  0.07661011  0.27068489  0.82304765    -0.09000
C471        C  0.09330009  0.29357067  0.82992620    -0.17900
C472        C  0.12354971  0.31645654  0.82804734     0.04500
C473        C  0.13645313  0.31528432  0.81894018     0.18700
C474        C  0.11947993  0.29180603  0.81213390    -0.19300
C475        C  0.16606237  0.33781528  0.81660954    -0.20600
C476        C  0.18288590  0.36195000  0.82300076    -0.19100
C477        C  0.17076206  0.36391749  0.83198035     0.20100
C478        C  0.14117499  0.34083827  0.83475038     0.02200
C479        C  0.13040174  0.34342851  0.84405038    -0.13800
C480        C  0.14760265  0.36860387  0.85006359    -0.11500
C481        C  0.17614448  0.39201245  0.84708803     0.01800
C482        C  0.18785307  0.38918095  0.83811842    -0.23700
H483        H  0.05348490  0.25368417  0.82478938     0.09800
H484        H  0.08169115  0.29291330  0.83656910     0.13300
H485        H  0.12963462  0.29110436  0.80524219     0.12100
H486        H  0.17610020  0.33707303  0.80969904     0.13200
H487        H  0.20549554  0.37932702  0.82086714     0.12300
H488        H  0.10867087  0.32657289  0.84685628     0.09400
H489        H  0.13808389  0.37003266  0.85699537     0.12600
H490        H  0.20997498  0.40706025  0.83576244     0.14500
C491        C  0.41858831  0.71507909  0.85210089    -0.01000
C492        C  0.40818058  0.70514976  0.86171328    -0.09000
C493        C  0.38646691  0.67512402  0.86351185    -0.17900
C494        C  0.37429833  0.65398480  0.85567433     0.04500
C495        C  0.38652913  0.66377413  0.84605197     0.18700
C496        C  0.40845681  0.69408243  0.84435545    -0.19300
C497        C  0.37602185  0.64349900  0.83811182    -0.20600
C498        C  0.35280853  0.61383794  0.83944434    -0.19100
C499        C  0.33925112  0.60384982  0.84871478     0.20100
C500        C  0.34993505  0.62375597  0.85698294     0.02200
C501        C  0.33501352  0.61286554  0.86612160    -0.13800
C502        C  0.31023245  0.58374520  0.86695105    -0.11500
C503        C  0.29959814  0.56427993  0.85878536     0.01800
C504        C  0.31451133  0.57427600  0.84971229    -0.23700
H505        H  0.41592714  0.72088440  0.86783944     0.09800
H506        H  0.37931378  0.66937721  0.87108100     0.13300
H507        H  0.41670427  0.70153489  0.83690152     0.12100
H508        H  0.38547781  0.65075576  0.83077689     0.13200
H509        H  0.34489558  0.59880719  0.83311905     0.12300
H510        H  0.34140430  0.62642214  0.87272096     0.09400
H511        H  0.29917544  0.57649988  0.87406770     0.12600
H512        H  0.30627663  0.55937077  0.84335103     0.14500
C513        C  0.81305422  0.97600008  0.79120888    -0.01000
C514        C  0.81921302  0.99802652  0.78410348    -0.09000
C515        C  0.84208256  0.02790737  0.78573019    -0.17900
C516        C  0.86009983  0.03656980  0.79447239     0.04500
C517        C  0.85314110  0.01422839  0.80177564     0.18700
C518        C  0.82938141  0.98451720  0.80018858    -0.19300
C519        C  0.87099312  0.02126195  0.81037324    -0.20600
C520        C  0.89689637  0.04951273  0.81156778    -0.19100
C521        C  0.90503020  0.07168772  0.80434048     0.20100
C522        C  0.88591448  0.06602568  0.79594443     0.02200
C523        C  0.89420833  0.08977462  0.78918731    -0.13800
C524        C  0.92176342  0.11685970  0.79018014    -0.11500
C525        C  0.94190040  0.12125579  0.79793221     0.01800
C526        C  0.93283367  0.09904297  0.80522425    -0.23700
H527        H  0.80681017  0.99201201  0.77713536     0.09800
H528        H  0.84601448  0.04339403  0.77979807     0.13300
H529        H  0.82483101  0.96760251  0.80573636     0.12100
H530        H  0.86567529  0.00437085  0.81600203     0.13200
H531        H  0.91104127  0.05381666  0.81807694     0.12300
H532        H  0.88020714  0.08787485  0.78293090     0.09400
H533        H  0.92793840  0.13390172  0.78454473     0.12600
H534        H  0.94802871  0.10245022  0.81134751     0.14500
C535        C  0.67207262  0.85781373  0.80073350    -0.01000
C536        C  0.65266796  0.86599237  0.79651276    -0.09000
C537        C  0.62807973  0.86258096  0.80175710    -0.17900
C538        C  0.62209412  0.85093914  0.81150840     0.04500
C539        C  0.64188384  0.84269366  0.81577606     0.18700
C540        C  0.66641816  0.84599293  0.81036315    -0.19300
C541        C  0.63728918  0.83151638  0.82546539    -0.20600
C542        C  0.61347439  0.82836924  0.83103742    -0.19100
C543        C  0.59347404  0.83604681  0.82702951     0.20100
C544        C  0.59733873  0.84732066  0.81719281     0.02200
C545        C  0.57609199  0.85421848  0.81347438    -0.13800
C546        C  0.55191518  0.84975319  0.81924819    -0.11500
C547        C  0.54818654  0.83848982  0.82890645     0.01800
C548        C  0.56928962  0.83202509  0.83277854    -0.23700
H549        H  0.65664672  0.87540431  0.78911085     0.09800
H550        H  0.61443499  0.86961006  0.79800044     0.13300
H551        H  0.68148357  0.83989095  0.81373674     0.12100
H552        H  0.65230319  0.82526627  0.82877767     0.13200
H553        H  0.61056847  0.81967742  0.83852531     0.12300
H554        H  0.57720873  0.86264752  0.80608752     0.09400
H555        H  0.53578753  0.85470716  0.81606624     0.12600
H556        H  0.56648400  0.82307111  0.84022851     0.14500
C557        C  0.96562869  0.87164360  0.79455178    -0.01000
C558        C  0.95052300  0.87013805  0.80328836    -0.09000
C559        C  0.92106032  0.86442556  0.80292965    -0.17900
C560        C  0.90609460  0.86083897  0.79374035     0.04500
C561        C  0.92127773  0.86140205  0.78494717     0.18700
C562        C  0.95034770  0.86598883  0.78545729    -0.19300
C563        C  0.90818984  0.85922154  0.77562765    -0.20600
C564        C  0.88116646  0.85841117  0.77479383    -0.19100
C565        C  0.86614567  0.85882496  0.78327342     0.20100
C566        C  0.87754340  0.85860062  0.79288754     0.02200
C567        C  0.86032413  0.85723047  0.80117340    -0.13800
C568        C  0.83418825  0.85842115  0.79993951    -0.11500
C569        C  0.82471693  0.86123469  0.79046069     0.01800
C570        C  0.84026394  0.86048829  0.78216726    -0.23700
H571        H  0.96189616  0.87441822  0.81041772     0.09800
H572        H  0.91120252  0.86445578  0.80991756     0.13300
H573        H  0.96192770  0.86728932  0.77865678     0.12100
H574        H  0.91960396  0.85950460  0.76891058     0.13200
H575        H  0.87225697  0.85806698  0.76745236     0.12300
H576        H  0.86673118  0.85567416  0.80868264     0.09400
H577        H  0.82213493  0.85847245  0.80643258     0.12600
H578        H  0.83253252  0.86190206  0.77478878     0.14500
C579        C  0.07777141  0.00156252  0.79733841    -0.01000
C580        C  0.08193014  0.01678719  0.80627301    -0.09000
C581        C  0.08314626  0.04417657  0.80635937    -0.17900
C582        C  0.08036950  0.05710654  0.79744347     0.04500
C583        C  0.07792516  0.04219298  0.78838747     0.18700
C584        C  0.07653929  0.01480055  0.78843384    -0.19300
C585        C  0.07605448  0.05421455  0.77931076    -0.20600
C586        C  0.07543691  0.08035117  0.77901256    -0.19100
C587        C  0.07615076  0.09479431  0.78779211     0.20100
C588        C  0.07898958  0.08367212  0.79714768     0.02200
C589        C  0.07887999  0.09885999  0.80577466    -0.13800
C590        C  0.07428406  0.12283070  0.80513199    -0.11500
C591        C  0.07039199  0.13286470  0.79589781     0.01800
C592        C  0.07251614  0.11947492  0.78725763    -0.23700
H593        H  0.08323640  0.00703948  0.81322496     0.09800
H594        H  0.08586962  0.05447552  0.81351062     0.13300
H595        H  0.07394589  0.00340458  0.78145418     0.12100
H596        H  0.07451226  0.04301574  0.77238875     0.13200
H597        H  0.07338620  0.08878183  0.77187178     0.12300
H598        H  0.08108180  0.09201465  0.81313304     0.09400
H599        H  0.07293328  0.13303171  0.81192052     0.12600
H600        H  0.06942809  0.12706674  0.78008939     0.14500
C601        C  0.38210090  0.80097202  0.83612597    -0.01000
C602        C  0.37453821  0.82050243  0.84037119    -0.09000
C603        C  0.34434523  0.81150754  0.84169816    -0.17900
C604        C  0.32077009  0.78248612  0.83884473     0.04500
C605        C  0.32855865  0.76430763  0.83343337     0.18700
C606        C  0.35903111  0.77364851  0.83213537    -0.19300
C607        C  0.30593365  0.73619746  0.82985990    -0.20600
C608        C  0.27574194  0.72512068  0.83195396    -0.19100
C609        C  0.26757258  0.74149876  0.83792444     0.20100
C610        C  0.28995501  0.77043981  0.84146231     0.02200
C611        C  0.28074742  0.78532259  0.84791944    -0.13800
C612        C  0.25061758  0.77196411  0.85075555    -0.11500
C613        C  0.22862335  0.74362107  0.84715863     0.01800
C614        C  0.23723635  0.72866554  0.84064714    -0.23700
H615        H  0.39197010  0.84200112  0.84333806     0.09800
H616        H  0.34018789  0.82736752  0.84526051     0.13300
H617        H  0.36470612  0.75863664  0.82864784     0.12100
H618        H  0.31167488  0.72240878  0.82559739     0.13200
H619        H  0.25877909  0.70308769  0.82920164     0.12300
H620        H  0.29644387  0.80690505  0.85114981     0.09400
H621        H  0.24454074  0.78387899  0.85583026     0.12600
H622        H  0.22041441  0.70654737  0.83790523     0.14500
C623        C  0.10616971  0.60781667  0.85049608    -0.01000
C624        C  0.11552060  0.59973193  0.84199325    -0.09000
C625        C  0.12087386  0.57617385  0.84229532    -0.17900
C626        C  0.11811176  0.56080117  0.85127950     0.04500
C627        C  0.10619364  0.56755993  0.85961311     0.18700
C628        C  0.09932670  0.59008586  0.85902654    -0.19300
C629        C  0.10376808  0.55381213  0.86877106    -0.20600
C630        C  0.11508923  0.53519554  0.87006504    -0.19100
C631        C  0.12847046  0.52933694  0.86217287     0.20100
C632        C  0.12897703  0.54090266  0.85255022     0.02200
C633        C  0.14200776  0.53346333  0.84479775    -0.13800
C634        C  0.15629999  0.51757341  0.84673310    -0.11500
C635        C  0.15770627  0.50825484  0.85638979     0.01800
C636        C  0.14266113  0.51316312  0.86398581    -0.23700
H637        H  0.12068665  0.61293377  0.83527549     0.09800
H638        H  0.12917952  0.57200797  0.83559403     0.13300
H639        H  0.09199550  0.59609892  0.86564134     0.12100
H640        H  0.09456198  0.55879136  0.87513127     0.13200
H641        H  0.11427334  0.52612041  0.87738050     0.12300
H642        H  0.14227236  0.54032577  0.83723345     0.09400
H643        H  0.16719003  0.51345552  0.84067937     0.12600
H644        H  0.14328243  0.50570589  0.87145558     0.14500
C645        C  0.10094923  0.75171909  0.84143815    -0.01000
C646        C  0.08509757  0.74153115  0.83242643    -0.09000
C647        C  0.07935084  0.76018748  0.82658873    -0.17900
C648        C  0.08931730  0.78987320  0.82960208     0.04500
C649        C  0.10421341  0.79962471  0.83896358     0.18700
C650        C  0.10991629  0.78063563  0.84474091    -0.19300
C651        C  0.11394288  0.82852255  0.84241846    -0.20600
C652        C  0.10977464  0.84826102  0.83669163    -0.19100
C653        C  0.09601930  0.83972945  0.82731613     0.20100
C654        C  0.08547172  0.81036683  0.82363572     0.02200
C655        C  0.07205945  0.80304882  0.81407133    -0.13800
C656        C  0.06944106  0.82399944  0.80841338    -0.11500
C657        C  0.07986821  0.85289557  0.81206331     0.01800
C658        C  0.09298999  0.86053702  0.82156192    -0.23700
H659        H  0.07786897  0.71928675  0.82970906     0.09800
H660        H  0.06739004  0.75080727  0.81970224     0.13300
H661        H  0.12203112  0.78869494  0.85173873     0.12100
H662        H  0.12513224  0.83603258  0.84957638     0.13200
H663        H  0.11776205  0.87053345  0.83956456     0.12300
H664        H  0.06356641  0.78140613  0.81070434     0.09400
H665        H  0.05897515  0.81739008  0.80112883     0.12600
H666        H  0.10101338  0.88278476  0.82447466     0.14500
C667        C  0.94506742  0.18898613  0.71705611    -0.01000
C668        C  0.92657103  0.17982341  0.72540201    -0.09000
C669        C  0.93911983  0.18528191  0.73496271    -0.17900
C670        C  0.97074184  0.19932541  0.73646152     0.04500
C671        C  0.98937920  0.20872618  0.72794457     0.18700
C672        C  0.97652473  0.20427636  0.71840000    -0.19300
C673        C  0.02059087  0.22119837  0.72896808    -0.20600
C674        C  0.03361813  0.22351615  0.73826138    -0.19100
C675        C  0.01594018  0.21441805  0.74681302     0.20100
C676        C  0.98440834  0.20321208  0.74605488     0.02200
C677        C  0.96787333  0.19609320  0.75493496    -0.13800
C678        C  0.98177061  0.19890709  0.76411175    -0.11500
C679        C  0.01240426  0.20832127  0.76480838     0.01800
C680        C  0.02948985  0.21616719  0.75612450    -0.23700
H681        H  0.90221661  0.16770194  0.72452969     0.09800
H682        H  0.92337178  0.17699663  0.74099917     0.13300
H683        H  0.99097622  0.21086542  0.71196212     0.12100
H684        H  0.03491565  0.22833052  0.72249537     0.13200
H685        H  0.05769325  0.23244064  0.73875912     0.12300
H686        H  0.94418708  0.18841949  0.75505117     0.09400
H687        H  0.96807701  0.19259643  0.77072347     0.12600
H688        H  0.05326261  0.22367743  0.75662136     0.14500
C689        C  0.77083041  0.22569052  0.64533325    -0.01000
C690        C  0.76706558  0.22087279  0.65557714    -0.09000
C691        C  0.78674846  0.21596233  0.66120005    -0.17900
C692        C  0.81102871  0.21556219  0.65673623     0.04500
C693        C  0.81513187  0.22099060  0.64635933     0.18700
C694        C  0.79506164  0.22588430  0.64077383    -0.19300
C695        C  0.83915434  0.22135907  0.64161971    -0.20600
C696        C  0.85880860  0.21572766  0.64692085    -0.19100
C697        C  0.85478532  0.20929688  0.65708434     0.20100
C698        C  0.83101542  0.20946188  0.66215743     0.02200
C699        C  0.82775889  0.20267328  0.67239447    -0.13800
C700        C  0.84632560  0.19474920  0.67726925    -0.11500
C701        C  0.86907432  0.19361251  0.67221220     0.01800
C702        C  0.87374252  0.20171073  0.66215429    -0.23700
H703        H  0.74879442  0.22099820  0.65931021     0.09800
H704        H  0.78225028  0.21254476  0.66902763     0.13300
H705        H  0.79835551  0.22988306  0.63285815     0.12100
H706        H  0.84259622  0.22574316  0.63372804     0.13200
H707        H  0.87692924  0.21581130  0.64299789     0.12300
H708        H  0.81058961  0.20251433  0.67683237     0.09400
H709        H  0.84235406  0.18883269  0.68505236     0.12600
H710        H  0.89128613  0.20089112  0.65816625     0.14500
C711        C  0.76082729  0.80565779  0.70756608    -0.01000
C712        C  0.73880516  0.81309363  0.70884298    -0.09000
C713        C  0.73035438  0.81638384  0.71835070    -0.17900
C714        C  0.74377265  0.81228952  0.72692017     0.04500
C715        C  0.76438234  0.80253186  0.72554521     0.18700
C716        C  0.77282256  0.79955088  0.71595968    -0.19300
C717        C  0.77733957  0.79682889  0.73374663    -0.20600
C718        C  0.77124418  0.80174204  0.74331525    -0.19100
C719        C  0.75271316  0.81328949  0.74491009     0.20100
C720        C  0.73847469  0.81856801  0.73676313     0.02200
C721        C  0.72115858  0.83163486  0.73880496    -0.13800
C722        C  0.71983809  0.84088392  0.74842317    -0.11500
C723        C  0.73454425  0.83620818  0.75633292     0.01800
C724        C  0.74984714  0.82125939  0.75458152    -0.23700
H725        H  0.72896110  0.81765356  0.70246734     0.09800
H726        H  0.71369206  0.82264590  0.71875872     0.13300
H727        H  0.78956718  0.79338195  0.71504427     0.12100
H728        H  0.79277318  0.78904322  0.73274920     0.13200
H729        H  0.78212918  0.79765788  0.74949715     0.12300
H730        H  0.70970784  0.83640667  0.73305965     0.09400
H731        H  0.70783420  0.85234330  0.74964846     0.12600
H732        H  0.76160528  0.81793359  0.76067262     0.14500
C733        C  0.80619120  0.90297921  0.67381917    -0.01000
C734        C  0.79149777  0.91075462  0.68073262    -0.09000
C735        C  0.79955799  0.94053765  0.68190667    -0.17900
C736        C  0.82270274  0.96362509  0.67615233     0.04500
C737        C  0.83551709  0.95522065  0.66851610     0.18700
C738        C  0.82737375  0.92516591  0.66746905    -0.19300
C739        C  0.85716461  0.97701885  0.66220324    -0.20600
C740        C  0.86703429  0.00713642  0.66349042    -0.19100
C741        C  0.85626627  0.01628646  0.67132936     0.20100
C742        C  0.83405755  0.99473291  0.67782441     0.02200
C743        C  0.82531579  0.00538470  0.68597147    -0.13800
C744        C  0.83843223  0.03615951  0.68763978    -0.11500
C745        C  0.86018363  0.05722816  0.68116622     0.01800
C746        C  0.86851569  0.04703205  0.67292411    -0.23700
H747        H  0.77468026  0.89395364  0.68562950     0.09800
H748        H  0.78761571  0.94485760  0.68748263     0.13300
H749        H  0.83855713  0.91930101  0.66199747     0.12100
H750        H  0.86677475  0.97077110  0.65629293     0.13200
H751        H  0.88399831  0.02350219  0.65852035     0.12300
H752        H  0.80923497  0.99053598  0.69138514     0.09400
H753        H  0.83186281  0.04348437  0.69411437     0.12600
H754        H  0.88566109  0.06315115  0.66794030     0.14500
C755        C  0.74517586  0.47275010  0.61767447    -0.01000
C756        C  0.75594284  0.46883695  0.62675783    -0.09000
C757        C  0.76183027  0.44579843  0.62797587    -0.17900
C758        C  0.75716778  0.42602720  0.62006789     0.04500
C759        C  0.74901242  0.43203661  0.61063496     0.18700
C760        C  0.74281185  0.45496500  0.60956013    -0.19300
C761        C  0.74580262  0.41431056  0.60241910    -0.20600
C762        C  0.74824168  0.38925360  0.60351333    -0.19100
C763        C  0.75319190  0.38094005  0.61289032     0.20100
C764        C  0.75863951  0.39965653  0.62126339     0.02200
C765        C  0.76300490  0.38992493  0.63058616    -0.13800
C766        C  0.75921712  0.36161065  0.63168345    -0.11500
C767        C  0.75164971  0.34237144  0.62352603     0.01800
C768        C  0.75041115  0.35289839  0.61406183    -0.23700
H769        H  0.75854418  0.48276933  0.63306447     0.09800
H770        H  0.76936139  0.44362772  0.63523744     0.13300
H771        H  0.73529402  0.45846142  0.60242135     0.12100
H772        H  0.74032510  0.41925556  0.59515596     0.13200
H773        H  0.74453932  0.37536119  0.59707479     0.12300
H774        H  0.76759891  0.40289085  0.63726986     0.09400
H775        H  0.76070339  0.35416460  0.63906454     0.12600
H776        H  0.74477451  0.33825504  0.60769138     0.14500
C777        C  0.76887696  0.74008130  0.65958217    -0.01000
C778        C  0.76041705  0.73976404  0.64965178    -0.09000
C779        C  0.75556218  0.71657803  0.64325014    -0.17900
C780        C  0.75919212  0.69295037  0.64661273     0.04500
C781        C  0.76708153  0.69316498  0.65676168     0.18700
C782        C  0.77165263  0.71639339  0.66308586    -0.19300
C783        C  0.77081659  0.67040320  0.66056664    -0.20600
C784        C  0.76685466  0.64723464  0.65451908    -0.19100
C785        C  0.75907937  0.64623222  0.64450590     0.20100
C786        C  0.75525382  0.66908772  0.64035038     0.02200
C787        C  0.74746192  0.66680046  0.63015514    -0.13800
C788        C  0.74252624  0.64224801  0.62448299    -0.11500
C789        C  0.74560064  0.61947103  0.62872802     0.01800
C790        C  0.75450374  0.62201899  0.63869101    -0.23700
H791        H  0.75819675  0.75785720  0.64675266     0.09800
H792        H  0.74933743  0.71793896  0.63570194     0.13300
H793        H  0.77819194  0.71636856  0.67075290     0.12100
H794        H  0.77685751  0.67050726  0.66829608     0.13200
H795        H  0.76976749  0.62986510  0.65771940     0.12300
H796        H  0.74453727  0.68334155  0.62640170     0.09400
H797        H  0.73572067  0.64082279  0.61678033     0.12600
H798        H  0.75684195  0.60447820  0.64206173     0.14500
C799        C  0.62662623  0.23244789  0.63986749    -0.01000
C800        C  0.59998179  0.20721860  0.63633767    -0.09000
C801        C  0.57262196  0.20618306  0.63651150    -0.17900
C802        C  0.57112408  0.23059342  0.64021070     0.04500
C803        C  0.59774196  0.25497217  0.64457151     0.18700
C804        C  0.62509688  0.25564875  0.64438045    -0.19300
C805        C  0.59732135  0.27932672  0.64859504    -0.20600
C806        C  0.57151301  0.28089487  0.64784913    -0.19100
C807        C  0.54559386  0.25824733  0.64300044     0.20100
C808        C  0.54471159  0.23240433  0.63930981     0.02200
C809        C  0.51796537  0.21030002  0.63442158    -0.13800
C810        C  0.49388385  0.21453519  0.63277889    -0.11500
C811        C  0.49541131  0.24058861  0.63608277     0.01800
C812        C  0.52098017  0.26191853  0.64145744    -0.23700
H813        H  0.60055379  0.18890697  0.63286731     0.09800
H814        H  0.55332201  0.18643435  0.63337527     0.13300
H815        H  0.64559441  0.27510810  0.64723367     0.12100
H816        H  0.61739815  0.29776750  0.65205661     0.13200
H817        H  0.57219453  0.30049057  0.65077498     0.12300
H818        H  0.51527684  0.18991844  0.63149854     0.09400
H819        H  0.47421999  0.19758782  0.62870890     0.12600
H820        H  0.52233168  0.28213927  0.64408472     0.14500
C821        C  0.47898829  0.35719565  0.63282836    -0.01000
C822        C  0.48098073  0.37632185  0.62517195    -0.09000
C823        C  0.50649802  0.40510867  0.62430898    -0.17900
C824        C  0.53111930  0.41530103  0.63100603     0.04500
C825        C  0.52741283  0.39701052  0.63936520     0.18700
C826        C  0.50125550  0.36846646  0.64028723    -0.19300
C827        C  0.55090714  0.40610827  0.64628397    -0.20600
C828        C  0.57909942  0.43146295  0.64455443    -0.19100
C829        C  0.58430851  0.44823501  0.63588461     0.20100
C830        C  0.56007806  0.44144611  0.62924888     0.02200
C831        C  0.56658222  0.45964351  0.62071832    -0.13800
C832        C  0.59636473  0.48113302  0.61828748    -0.11500
C833        C  0.62034307  0.48541623  0.62435302     0.01800
C834        C  0.61402548  0.47026150  0.63343572    -0.23700
H835        H  0.46378343  0.36828885  0.61940411     0.09800
H836        H  0.50703214  0.41802819  0.61798055     0.13300
H837        H  0.49968214  0.35393278  0.64632028     0.12100
H838        H  0.54801361  0.39254622  0.65276884     0.13200
H839        H  0.59737231  0.43697388  0.64974670     0.12300
H840        H  0.54936508  0.45682854  0.61552962     0.09400
H841        H  0.60069195  0.49324224  0.61135905     0.12600
H842        H  0.63246750  0.47408479  0.63830754     0.14500
C843        C  0.15492065  0.01961391  0.72082397    -0.01000
C844        C  0.14703236  0.98958355  0.72125659    -0.09000
C845        C  0.14160822  0.97470113  0.73034802    -0.17900
C846        C  0.14410341  0.98955979  0.73936474     0.04500
C847        C  0.15447021  0.02068114  0.73891718     0.18700
C848        C  0.15948145  0.03526728  0.72970936    -0.19300
C849        C  0.15869414  0.03682952  0.74764529    -0.20600
C850        C  0.15188841  0.02256164  0.75680784    -0.19100
C851        C  0.13990331  0.99162150  0.75745324     0.20100
C852        C  0.13582340  0.97457443  0.74875931     0.02200
C853        C  0.12204975  0.94308808  0.74980964    -0.13800
C854        C  0.11134975  0.92910459  0.75901204    -0.11500
C855        C  0.11513363  0.94608559  0.76748752     0.01800
C856        C  0.13041885  0.97741148  0.76670670    -0.23700
H857        H  0.14347879  0.97699049  0.71449575     0.09800
H858        H  0.13500736  0.95147053  0.73006913     0.13300
H859        H  0.16588722  0.05858898  0.72944971     0.12100
H860        H  0.16687836  0.06059838  0.74737416     0.13200
H861        H  0.15496694  0.03564526  0.76341025     0.12300
H862        H  0.11785188  0.92853537  0.74358620     0.09400
H863        H  0.09937235  0.90484686  0.75945787     0.12600
H864        H  0.13281971  0.99063019  0.77321332     0.14500
C865        C  0.09426208  0.09959419  0.68893097    -0.01000
C866        C  0.08166374  0.09918141  0.67963842    -0.09000
C867        C  0.06503711  0.11289471  0.67823691    -0.17900
C868        C  0.06001546  0.12720154  0.68617581     0.04500
C869        C  0.07308307  0.12779429  0.69558432     0.18700
C870        C  0.09041373  0.11451726  0.69682581    -0.19300
C871        C  0.06780846  0.14060756  0.70379178    -0.20600
C872        C  0.04851812  0.15139719  0.70299725    -0.19100
C873        C  0.03465849  0.15031411  0.69391829     0.20100
C874        C  0.04120814  0.13948154  0.68526210     0.02200
C875        C  0.02766305  0.14040291  0.67618077    -0.13800
C876        C  0.00615836  0.14878611  0.67593469    -0.11500
C877        C  0.99772957  0.15645385  0.68469987     0.01800
C878        C  0.01302347  0.15852494  0.69355833    -0.23700
H879        H  0.08435099  0.08783338  0.67340774     0.09800
H880        H  0.05557821  0.11105072  0.67092015     0.13300
H881        H  0.09994855  0.11481480  0.70405607     0.12100
H882        H  0.07777647  0.14126966  0.71096670     0.13200
H883        H  0.04387161  0.16003970  0.70958515     0.12300
H884        H  0.03255002  0.13391819  0.66920256     0.09400
H885        H  0.99464099  0.14727660  0.66901427     0.12600
H886        H  0.00676074  0.16495668  0.70033502     0.14500
C887        C  0.05750262  0.96359100  0.68687203    -0.01000
C888        C  0.04166603  0.94598066  0.69507289    -0.09000
C889        C  0.01169547  0.92243609  0.69413014    -0.17900
C890        C  0.99627489  0.91613826  0.68492070     0.04500
C891        C  0.01318427  0.93253264  0.67646694     0.18700
C892        C  0.04365123  0.95577951  0.67749052    -0.19300
C893        C  0.99911306  0.92680607  0.66714319    -0.20600
C894        C  0.96821163  0.90653277  0.66612432    -0.19100
C895        C  0.95060438  0.89156855  0.67440875     0.20100
C896        C  0.96444553  0.89543452  0.68388841     0.02200
C897        C  0.94552873  0.87966150  0.69199663    -0.13800
C898        C  0.91412717  0.86238449  0.69083514    -0.11500
C899        C  0.90055416  0.85998764  0.68157515     0.01800
C900        C  0.91903398  0.87382810  0.67333420    -0.23700
H901        H  0.05216222  0.95119375  0.70237120     0.09800
H902        H  0.00092899  0.91039933  0.70082722     0.13300
H903        H  0.05585130  0.96918728  0.67109844     0.12100
H904        H  0.01189109  0.93889062  0.66064624     0.13200
H905        H  0.95782836  0.90336960  0.65885431     0.12300
H906        H  0.95418203  0.88095797  0.69939725     0.09400
H907        H  0.90037399  0.85163803  0.69729778     0.12600
H908        H  0.90876652  0.87184511  0.66610605     0.14500
C909        C  0.34410706  0.20087242  0.64349959    -0.01000
C910        C  0.32914015  0.16984400  0.64191848    -0.09000
C911        C  0.30462262  0.14990819  0.64776826    -0.17900
C912        C  0.29416078  0.16044097  0.65543600     0.04500
C913        C  0.30897089  0.19202673  0.65682278     0.18700
C914        C  0.33367680  0.21178918  0.65091345    -0.19300
C915        C  0.29918229  0.20375712  0.66414628    -0.20600
C916        C  0.27499336  0.18480638  0.67016903    -0.19100
C917        C  0.26017041  0.15361756  0.66909921     0.20100
C918        C  0.26957144  0.14089229  0.66175953     0.02200
C919        C  0.25397419  0.10918772  0.66112331    -0.13800
C920        C  0.22974615  0.09101148  0.66737187    -0.11500
C921        C  0.22038198  0.10371329  0.67450136     0.01800
C922        C  0.23588190  0.13507916  0.67534161    -0.23700
H923        H  0.33671556  0.16083225  0.63622183     0.09800
H924        H  0.29440429  0.12639476  0.64611519     0.13300
H925        H  0.34502331  0.23577901  0.65217268     0.12100
H926        H  0.31030196  0.22779652  0.66522037     0.13200
H927        H  0.26791585  0.19463564  0.67574696     0.12300
H928        H  0.25992286  0.09772860  0.65587381     0.09400
H929        H  0.21822015  0.06686145  0.66659092     0.12600
H930        H  0.22879546  0.14520245  0.68081287     0.14500
C931        C  0.25177252  0.47472413  0.89285655    -0.01000
C932        C  0.23400969  0.47021737  0.90117308    -0.09000
C933        C  0.24683460  0.47762756  0.91067476    -0.17900
C934        C  0.27822998  0.49034576  0.91218843     0.04500
C935        C  0.29610859  0.49413754  0.90376041     0.18700
C936        C  0.28274004  0.48595130  0.89424349    -0.19300
C937        C  0.32739284  0.50717191  0.90482818    -0.20600
C938        C  0.34148871  0.51753633  0.91402866    -0.19100
C939        C  0.32462919  0.51476677  0.92243003     0.20100
C940        C  0.29265254  0.50042360  0.92168429     0.02200
C941        C  0.27659763  0.49740273  0.93044760    -0.13800
C942        C  0.29172869  0.50927381  0.93943823    -0.11500
C943        C  0.32332188  0.52459518  0.94005531     0.01800
C944        C  0.33962445  0.52682804  0.93154226    -0.23700
H945        H  0.21009795  0.46169515  0.90031112     0.09800
H946        H  0.23166001  0.47401814  0.91662749     0.13300
H947        H  0.29680288  0.48985572  0.88784656     0.12100
H948        H  0.34117968  0.51006375  0.89845134     0.13200
H949        H  0.36582286  0.52815989  0.91454912     0.12300
H950        H  0.25234730  0.48625174  0.93060538     0.09400
H951        H  0.27854104  0.50709906  0.94590571     0.12600
H952        H  0.36406721  0.53845321  0.93195980     0.14500
C953        C  0.51543799  0.50992962  0.01177544    -0.01000
C954        C  0.52695459  0.52601048  0.00293931    -0.09000
C955        C  0.51022370  0.53491107  0.99727835    -0.17900
C956        C  0.48124454  0.52798118  0.00030720     0.04500
C957        C  0.47014541  0.51247088  0.00944304     0.18700
C958        C  0.48721936  0.50374770  0.01504896    -0.19300
C959        C  0.44174312  0.50513379  0.01285571    -0.20600
C960        C  0.42373510  0.51231444  0.00730036    -0.19100
C961        C  0.43369332  0.52713613  0.99820176     0.20100
C962        C  0.46268014  0.53543698  0.99458314     0.02200
C963        C  0.47157638  0.55054923  0.98536135    -0.13800
C964        C  0.45245019  0.55693238  0.97997472    -0.11500
C965        C  0.42388655  0.54856947  0.98356703     0.01800
C966        C  0.41471697  0.53368136  0.99270281    -0.23700
H967        H  0.54869720  0.53109355  0.00024854     0.09800
H968        H  0.52040015  0.54678888  0.99050115     0.13300
H969        H  0.47815907  0.49151081  0.02191653     0.12100
H970        H  0.43322074  0.49342240  0.01983253     0.13200
H971        H  0.40174081  0.50605148  0.01012142     0.12300
H972        H  0.49317174  0.55774031  0.98210810     0.09400
H973        H  0.46018051  0.56864885  0.97296878     0.12600
H974        H  0.39271068  0.52720248  0.99557902     0.14500
C975        C  0.47494471  0.22298041  0.02235435    -0.01000
C976        C  0.48088899  0.23863379  0.01341728    -0.09000
C977        C  0.48510990  0.26724674  0.01320079    -0.17900
C978        C  0.48345020  0.28100448  0.02198508     0.04500
C979        C  0.47441130  0.26368864  0.03083386     0.18700
C980        C  0.47048633  0.23505472  0.03095738    -0.19300
C981        C  0.47070054  0.27558432  0.03959747    -0.20600
C982        C  0.47753958  0.30505328  0.03991465    -0.19100
C983        C  0.48890833  0.32348661  0.03154076     0.20100
C984        C  0.49157165  0.31160272  0.02240536     0.02200
C985        C  0.50389443  0.33132971  0.01424188    -0.13800
C986        C  0.51421733  0.36173710  0.01521757    -0.11500
C987        C  0.51243872  0.37353528  0.02430432     0.01800
C988        C  0.49898346  0.35410662  0.03237114    -0.23700
H989        H  0.48397058  0.22945341  0.00666648     0.09800
H990        H  0.49033900  0.27827022  0.00608966     0.13300
H991        H  0.46518760  0.22264064  0.03786730     0.12100
H992        H  0.46322100  0.26226351  0.04631925     0.13200
H993        H  0.47512530  0.31385320  0.04687040     0.12300
H994        H  0.50697801  0.32424527  0.00709522     0.09400
H995        H  0.52457842  0.37627688  0.00887630     0.12600
H996        H  0.49752611  0.36305084  0.03943886     0.14500
C997        C  0.47330964  0.85937834  0.87253230    -0.01000
C998        C  0.45418756  0.87063760  0.87312768    -0.09000
C999        C  0.45022267  0.88123105  0.88210582    -0.17900
C1000       C  0.46561877  0.88117068  0.89080965     0.04500
C1001       C  0.48671170  0.87178510  0.88997548     0.18700
C1002       C  0.49001152  0.86059057  0.88092777    -0.19300
C1003       C  0.50377582  0.87287870  0.89824215    -0.20600
C1004       C  0.49954046  0.88200865  0.90742736    -0.19100
C1005       C  0.47758479  0.88952292  0.90862841     0.20100
C1006       C  0.46033722  0.88933354  0.90033960     0.02200
C1007       C  0.43754095  0.89583770  0.90206120    -0.13800
C1008       C  0.43130632  0.90096664  0.91165816    -0.11500
C1009       C  0.44803901  0.90060294  0.91980365     0.01800
C1010       C  0.47177586  0.89579211  0.91817763    -0.23700
H1011       H  0.44121415  0.87010579  0.86669843     0.09800
H1012       H  0.43476016  0.88907458  0.88200911     0.13300
H1013       H  0.50522094  0.85233758  0.88045595     0.12100
H1014       H  0.52021930  0.86621206  0.89763269     0.13200
H1015       H  0.51280583  0.88217162  0.91371572     0.12300
H1016       H  0.42321031  0.89578845  0.89621169     0.09400
H1017       H  0.41270643  0.90437133  0.91274223     0.12600
H1018       H  0.48451756  0.89492509  0.92446020     0.14500
C1019       C  0.42983502  0.81314184  0.95276517    -0.01000
C1020       C  0.42029688  0.79338267  0.94469399    -0.09000
C1021       C  0.41835637  0.76593753  0.94546867    -0.17900
C1022       C  0.42552087  0.75704111  0.95446560     0.04500
C1023       C  0.43780378  0.77823688  0.96236429     0.18700
C1024       C  0.43992128  0.80611179  0.96145028    -0.19300
C1025       C  0.44671844  0.77093054  0.97123730    -0.20600
C1026       C  0.44228396  0.74250144  0.97261171    -0.19100
C1027       C  0.42821856  0.72048087  0.96523291     0.20100
C1028       C  0.41996129  0.72756766  0.95600055     0.02200
C1029       C  0.40499980  0.70438253  0.94889398    -0.13800
C1030       C  0.39779690  0.67527419  0.95097054    -0.11500
C1031       C  0.40529464  0.66815407  0.96015081     0.01800
C1032       C  0.42114640  0.69104496  0.96717935    -0.23700
H1033       H  0.41336700  0.79876773  0.93777950     0.09800
H1034       H  0.41059235  0.75198577  0.93893724     0.13300
H1035       H  0.44787745  0.82156612  0.96766784     0.12100
H1036       H  0.45656772  0.78708251  0.97723865     0.13200
H1037       H  0.44888318  0.73736000  0.97964093     0.12300
H1038       H  0.39751229  0.70766205  0.94178053     0.09400
H1039       H  0.38538350  0.65800947  0.94543578     0.12600
H1040       H  0.42695080  0.68571818  0.97432669     0.14500
C1041       C  0.46433961  0.07299140  0.00497655    -0.01000
C1042       C  0.48027535  0.05833547  0.00613748    -0.09000
C1043       C  0.47717969  0.03710219  0.99923746    -0.17900
C1044       C  0.45777406  0.02964039  0.99090322     0.04500
C1045       C  0.44061412  0.04359584  0.98999843     0.18700
C1046       C  0.44421524  0.06520624  0.99695152    -0.19300
C1047       C  0.42010269  0.03605003  0.98212094    -0.20600
C1048       C  0.41634055  0.01503315  0.97507361    -0.19100
C1049       C  0.43337780  0.00141644  0.97562484     0.20100
C1050       C  0.45459674  0.00871724  0.98348243     0.02200
C1051       C  0.47174316  0.99481935  0.98352370    -0.13800
C1052       C  0.46703409  0.97364137  0.97631348    -0.11500
C1053       C  0.44536586  0.96580444  0.96878612     0.01800
C1054       C  0.42901332  0.98021987  0.96840244    -0.23700
H1055       H  0.49580227  0.06375963  0.01232057     0.09800
H1056       H  0.49028521  0.02693903  0.00064690     0.13300
H1057       H  0.43151916  0.07617597  0.99605783     0.12100
H1058       H  0.40678863  0.04640904  0.98141996     0.13200
H1059       H  0.40009247  0.00951842  0.96910660     0.12300
H1060       H  0.48886795  0.99970727  0.98904892     0.09400
H1061       H  0.48007614  0.96295834  0.97674314     0.12600
H1062       H  0.41217182  0.97433961  0.96260588     0.14500
C1063       C  0.76737222  0.45174845  0.02690445    -0.01000
C1064       C  0.76627772  0.47051388  0.03402051    -0.09000
C1065       C  0.74502122  0.47912914  0.03319706    -0.17900
C1066       C  0.72364196  0.46856268  0.02529680     0.04500
C1067       C  0.72548619  0.45016403  0.01797769     0.18700
C1068       C  0.74759559  0.44257812  0.01872482    -0.19300
C1069       C  0.70436246  0.43820107  0.01019108    -0.20600
C1070       C  0.68059895  0.44311659  0.00970813    -0.19100
C1071       C  0.67776694  0.46071118  0.01686822     0.20100
C1072       C  0.69970827  0.47439948  0.02461419     0.02200
C1073       C  0.69618034  0.49260744  0.03148567    -0.13800
C1074       C  0.67101187  0.49554151  0.03104045    -0.11500
C1075       C  0.64864518  0.48074065  0.02370866     0.01800
C1076       C  0.65258902  0.46397341  0.01648606    -0.23700
H1077       H  0.78140053  0.47795282  0.04038982     0.09800
H1078       H  0.74516939  0.49310870  0.03906009     0.13300
H1079       H  0.74819444  0.42795271  0.01318619     0.12100
H1080       H  0.70567839  0.42414147  0.00459683     0.13200
H1081       H  0.66409280  0.43275929  0.00375468     0.12300
H1082       H  0.71220396  0.50448331  0.03739130     0.09400
H1083       H  0.66864096  0.50884036  0.03666994     0.12600
H1084       H  0.63540711  0.45239716  0.01078863     0.14500
C1085       C  0.73831549  0.32022878  0.02591731    -0.01000
C1086       C  0.72406966  0.31183600  0.01662595    -0.09000
C1087       C  0.69441949  0.28738238  0.01574293    -0.17900
C1088       C  0.67821680  0.27069471  0.02419617     0.04500
C1089       C  0.69380860  0.27809188  0.03345924     0.18700
C1090       C  0.72349359  0.30258853  0.03421808    -0.19300
C1091       C  0.67933018  0.26181432  0.04200949    -0.20600
C1092       C  0.64916698  0.23887429  0.04165309    -0.19100
C1093       C  0.63267156  0.23197682  0.03276918     0.20100
C1094       C  0.64697012  0.24761886  0.02388511     0.02200
C1095       C  0.62902883  0.24030344  0.01518611    -0.13800
C1096       C  0.59813925  0.21900243  0.01537109    -0.11500
C1097       C  0.58413427  0.20400152  0.02416595     0.01800
C1098       C  0.60166386  0.21017107  0.03279649    -0.23700
H1099       H  0.73527381  0.32512966  0.01011545     0.09800
H1100       H  0.68459078  0.28257177  0.00839167     0.13300
H1101       H  0.73469804  0.30876673  0.04141575     0.12100
H1102       H  0.69126879  0.26724793  0.04906765     0.13200
H1103       H  0.63844310  0.22699648  0.04843715     0.12300
H1104       H  0.63799266  0.25122178  0.00817268     0.09400
H1105       H  0.58504191  0.21460497  0.00859974     0.12600
H1106       H  0.59094612  0.19879277  0.03965280     0.14500
C1107       C  0.12577378  0.68343516  0.88840471    -0.01000
C1108       C  0.10313051  0.68326726  0.89398452    -0.09000
C1109       C  0.09825798  0.67351463  0.90385847    -0.17900
C1110       C  0.11567992  0.66307944  0.90846033     0.04500
C1111       C  0.13873351  0.66346805  0.90276230     0.18700
C1112       C  0.14368233  0.67378532  0.89290278    -0.19300
C1113       C  0.15661315  0.65334022  0.90690432    -0.20600
C1114       C  0.15251466  0.64330089  0.91666266    -0.19100
C1115       C  0.13035684  0.64302234  0.92253895     0.20100
C1116       C  0.11128947  0.65248570  0.91849425     0.02200
C1117       C  0.08889679  0.65115290  0.92471799    -0.13800
C1118       C  0.08650511  0.64218568  0.93462450    -0.11500
C1119       C  0.10617685  0.63410917  0.93869077     0.01800
C1120       C  0.12762247  0.63394660  0.93251838    -0.23700
H1121       H  0.08899019  0.69059221  0.89068038     0.09800
H1122       H  0.08053092  0.67423782  0.90766957     0.13300
H1123       H  0.16108355  0.67353174  0.88862198     0.12100
H1124       H  0.17407656  0.65337622  0.90257859     0.13200
H1125       H  0.16699428  0.63594362  0.91966592     0.12300
H1126       H  0.07314820  0.65735078  0.92219784     0.09400
H1127       H  0.06963257  0.64238277  0.93920251     0.12600
H1128       H  0.14289938  0.62762065  0.93556261     0.14500
C1129       C  0.28705349  0.56406032  0.98116502    -0.01000
C1130       C  0.25884701  0.54122968  0.97759803    -0.09000
C1131       C  0.23348985  0.54366827  0.97839065    -0.17900
C1132       C  0.23574589  0.56933945  0.98271859     0.04500
C1133       C  0.26369071  0.59080878  0.98725857     0.18700
C1134       C  0.28894078  0.58789997  0.98649461    -0.19300
C1135       C  0.26683942  0.61608878  0.99195391    -0.20600
C1136       C  0.24346344  0.62163225  0.99163857    -0.19100
C1137       C  0.21655521  0.60220881  0.98651262     0.20100
C1138       C  0.21197526  0.57536938  0.98219517     0.02200
C1139       C  0.18458735  0.55675066  0.97697394    -0.13800
C1140       C  0.16364960  0.56543531  0.97552574    -0.11500
C1141       C  0.16891193  0.59253612  0.97938241     0.01800
C1142       C  0.19485605  0.61026802  0.98521484    -0.23700
H1143       H  0.25670879  0.52233439  0.97357412     0.09800
H1144       H  0.21281842  0.52570510  0.97518069     0.13300
H1145       H  0.31062175  0.60540911  0.98942700     0.12100
H1146       H  0.28793041  0.63228047  0.99557092     0.13200
H1147       H  0.24697902  0.64194501  0.99504767     0.12300
H1148       H  0.17917077  0.53592996  0.97356603     0.09400
H1149       H  0.14352891  0.55114993  0.97113122     0.12600
H1150       H  0.19903388  0.63124852  0.98827423     0.14500
C1151       C  0.17393077  0.72090823  0.97284421    -0.01000
C1152       C  0.17692027  0.73877459  0.96463012    -0.09000
C1153       C  0.20500369  0.76398775  0.96227629    -0.17900
C1154       C  0.23106080  0.77168351  0.96801780     0.04500
C1155       C  0.22706389  0.75515853  0.97688018     0.18700
C1156       C  0.19861376  0.73049641  0.97929540    -0.19300
C1157       C  0.25184008  0.76189229  0.98293961    -0.20600
C1158       C  0.28084939  0.78371270  0.98014607    -0.19100
C1159       C  0.28578382  0.79927118  0.97121517     0.20100
C1160       C  0.26103093  0.79399453  0.96507939     0.02200
C1161       C  0.26759414  0.81024619  0.95607269    -0.13800
C1162       C  0.29749002  0.83003315  0.95316001    -0.11500
C1163       C  0.32168070  0.83440455  0.95914651     0.01800
C1164       C  0.31553888  0.81938417  0.96825301    -0.23700
H1165       H  0.15805230  0.73202711  0.95958342     0.09800
H1166       H  0.20589494  0.77605502  0.95565489     0.13300
H1167       H  0.19643095  0.71702822  0.98574235     0.12100
H1168       H  0.24887383  0.74947270  0.98972774     0.13200
H1169       H  0.29966253  0.78780970  0.98486895     0.12300
H1170       H  0.25015108  0.80761368  0.95101565     0.09400
H1171       H  0.30166723  0.84149643  0.94610674     0.12600
H1172       H  0.33407596  0.82266437  0.97297170     0.14500
C1173       C  0.02748525  0.56861140  0.98723976    -0.01000
C1174       C  0.02301834  0.57729017  0.99654775    -0.09000
C1175       C  0.99887274  0.55709020  0.00245556    -0.17900
C1176       C  0.97826301  0.52739609  0.99920206     0.04500
C1177       C  0.98225748  0.51911394  0.98958245     0.18700
C1178       C  0.00678640  0.53957827  0.98376336    -0.19300
C1179       C  0.96182855  0.49041914  0.98583648    -0.20600
C1180       C  0.93725663  0.46973365  0.99141941    -0.19100
C1181       C  0.93288118  0.47701504  0.00097034     0.20100
C1182       C  0.95366831  0.50576330  0.00507589     0.02200
C1183       C  0.94895034  0.51155843  0.01489560    -0.13800
C1184       C  0.92385155  0.49038053  0.02020211    -0.11500
C1185       C  0.90262087  0.46268293  0.01595810     0.01800
C1186       C  0.90759384  0.45586175  0.00640499    -0.23700
H1187       H  0.03863604  0.59963039  0.99937704     0.09800
H1188       H  0.99693863  0.56547612  0.00952124     0.13300
H1189       H  0.00992935  0.53272695  0.97652301     0.12100
H1190       H  0.96472429  0.48401582  0.97849159     0.13200
H1191       H  0.92161163  0.44784823  0.98825426     0.12300
H1192       H  0.96418755  0.53230444  0.01869554     0.09400
H1193       H  0.92073899  0.49606346  0.02762529     0.12600
H1194       H  0.89138114  0.43437576  0.00309037     0.14500
C1195       C  0.58329304  0.13641693  0.55690988    -0.01000
C1196       C  0.56734927  0.13437890  0.56547578    -0.09000
C1197       C  0.58200256  0.14316299  0.57471201    -0.17900
C1198       C  0.61347563  0.15509840  0.57563620     0.04500
C1199       C  0.62943088  0.15662837  0.56693988     0.18700
C1200       C  0.61417390  0.14669455  0.55777201    -0.19300
C1201       C  0.66078340  0.16939194  0.56733863    -0.20600
C1202       C  0.67690499  0.18197745  0.57609380    -0.19100
C1203       C  0.66199122  0.18133854  0.58475054     0.20100
C1204       C  0.62992618  0.16684364  0.58474758     0.02200
C1205       C  0.61584447  0.16526937  0.59383033    -0.13800
C1206       C  0.63295315  0.17881431  0.60239310    -0.11500
C1207       C  0.66459279  0.19470117  0.60219703     0.01800
C1208       C  0.67899565  0.19555268  0.59338047    -0.23700
H1209       H  0.54355432  0.12671198  0.56499646     0.09800
H1210       H  0.56831718  0.14155736  0.58090601     0.13300
H1211       H  0.62685536  0.14880519  0.55116502     0.12100
H1212       H  0.67308209  0.17057640  0.56074044     0.13200
H1213       H  0.70126509  0.19255084  0.57606695     0.12300
H1214       H  0.59166043  0.15378500  0.59455772     0.09400
H1215       H  0.62130724  0.17767175  0.60915187     0.12600
H1216       H  0.70346634  0.20740572  0.59322762     0.14500
C1217       C  0.40689529  0.92346886  0.48083746    -0.01000
C1218       C  0.43780124  0.94093601  0.47876094    -0.09000
C1219       C  0.45698239  0.96660585  0.48433956    -0.17900
C1220       C  0.44573302  0.97562130  0.49221923     0.04500
C1221       C  0.41413767  0.95828987  0.49404169     0.18700
C1222       C  0.39518090  0.93258428  0.48838281    -0.19300
C1223       C  0.40162325  0.96635831  0.50162244    -0.20600
C1224       C  0.41987196  0.99106949  0.50758289    -0.19100
C1225       C  0.45110389  0.00823728  0.50613978     0.20100
C1226       C  0.46457959  0.00094101  0.49841746     0.02200
C1227       C  0.49629843  0.01920865  0.49732023    -0.13800
C1228       C  0.51372894  0.04376869  0.50357185    -0.11500
C1229       C  0.50021589  0.05081807  0.51113204     0.01800
C1230       C  0.46890297  0.03281878  0.51238538    -0.23700
H1231       H  0.44737687  0.93432939  0.47295262     0.09800
H1232       H  0.48052603  0.97867625  0.48237619     0.13300
H1233       H  0.37124806  0.91926208  0.49000835     0.12100
H1234       H  0.37754264  0.95331688  0.50300341     0.13200
H1235       H  0.40948790  0.99666386  0.51342163     0.12300
H1236       H  0.50830992  0.01521586  0.49167977     0.09400
H1237       H  0.53786404  0.05752021  0.50239850     0.12600
H1238       H  0.45816265  0.03827243  0.51814754     0.14500
C1239       C  0.46454681  0.34551721  0.54823814    -0.01000
C1240       C  0.48414708  0.33763835  0.55245981    -0.09000
C1241       C  0.47771732  0.32284936  0.56156084    -0.17900
C1242       C  0.45138180  0.31559274  0.56684420     0.04500
C1243       C  0.43174790  0.32405448  0.56260844     0.18700
C1244       C  0.43838216  0.33871962  0.55337362    -0.19300
C1245       C  0.40560392  0.31778012  0.56760999    -0.20600
C1246       C  0.39887213  0.30389972  0.57685365    -0.19100
C1247       C  0.41796539  0.29568644  0.58129209     0.20100
C1248       C  0.44415550  0.30081771  0.57625333     0.02200
C1249       C  0.46226262  0.29141913  0.58095063    -0.13800
C1250       C  0.45573740  0.27925314  0.59047729    -0.11500
C1251       C  0.43088264  0.27576938  0.59564588     0.01800
C1252       C  0.41155680  0.28322273  0.59088431    -0.23700
H1253       H  0.50427922  0.34224594  0.54858286     0.09800
H1254       H  0.49390887  0.31745948  0.56424859     0.13300
H1255       H  0.42296023  0.34456909  0.55013065     0.12100
H1256       H  0.39045354  0.32402720  0.56441017     0.13200
H1257       H  0.37875623  0.29987534  0.58061211     0.12300
H1258       H  0.48201092  0.29366895  0.57755340     0.09400
H1259       H  0.47091841  0.27348586  0.59394489     0.12600
H1260       H  0.39215688  0.28047853  0.59479981     0.14500
C1261       C  0.45466667  0.28165196  0.51034111    -0.01000
C1262       C  0.43809481  0.25931785  0.51739326    -0.09000
C1263       C  0.44180024  0.23486702  0.51843553    -0.17900
C1264       C  0.46257258  0.23233813  0.51248282     0.04500
C1265       C  0.47638771  0.25312232  0.50455911     0.18700
C1266       C  0.47214514  0.27733731  0.50351969    -0.19300
C1267       C  0.49624087  0.25103764  0.49819119    -0.20600
C1268       C  0.50459770  0.23024445  0.49998805    -0.19100
C1269       C  0.49358791  0.21136387  0.50826253     0.20100
C1270       C  0.47174303  0.21140976  0.51448741     0.02200
C1271       C  0.46182725  0.19208525  0.52283594    -0.13800
C1272       C  0.47472719  0.17513332  0.52525781    -0.11500
C1273       C  0.49729842  0.17641808  0.51932575     0.01800
C1274       C  0.50567115  0.19366842  0.51063826    -0.23700
H1275       H  0.42400439  0.26190045  0.52264565     0.09800
H1276       H  0.42928369  0.21918607  0.52427820     0.13300
H1277       H  0.48458976  0.29425426  0.49791201     0.12100
H1278       H  0.50641472  0.26646914  0.49203618     0.13200
H1279       H  0.52096336  0.22997167  0.49515056     0.12300
H1280       H  0.44508938  0.19053360  0.52785994     0.09400
H1281       H  0.46753924  0.16156281  0.53192046     0.12600
H1282       H  0.52294889  0.19463054  0.50593755     0.14500
C1283       C  0.39682686  0.78782673  0.47242820    -0.01000
C1284       C  0.41566544  0.78682381  0.46531199    -0.09000
C1285       C  0.42549894  0.76670668  0.46628461    -0.17900
C1286       C  0.41613801  0.74642832  0.47435119     0.04500
C1287       C  0.39855997  0.74888882  0.48185279     0.18700
C1288       C  0.38965466  0.76986578  0.48092666    -0.19300
C1289       C  0.38805643  0.72891971  0.48986500    -0.20600
C1290       C  0.39185827  0.70455627  0.49004325    -0.19100
C1291       C  0.40702203  0.70018965  0.48236206     0.20100
C1292       C  0.42124019  0.72217890  0.47479670     0.02200
C1293       C  0.43809495  0.71769732  0.46761845    -0.13800
C1294       C  0.43724276  0.69064520  0.46716405    -0.11500
C1295       C  0.41966326  0.66741595  0.47382699     0.01800
C1296       C  0.40613857  0.67296202  0.48177059    -0.23700
H1297       H  0.42183865  0.80077547  0.45874560     0.09800
H1298       H  0.43895883  0.76642112  0.46031729     0.13300
H1299       H  0.37533197  0.77072127  0.48653399     0.12100
H1300       H  0.37511176  0.73102491  0.49570103     0.13200
H1301       H  0.38170526  0.68831849  0.49598778     0.12300
H1302       H  0.45105537  0.73411517  0.46200610     0.09400
H1303       H  0.44839485  0.68705374  0.46106814     0.12600
H1304       H  0.39308348  0.65527026  0.48708794     0.14500
C1305       C  0.43614780  0.41841630  0.50442128    -0.01000
C1306       C  0.42018618  0.40847858  0.49542625    -0.09000
C1307       C  0.41427539  0.42728889  0.48977916    -0.17900
C1308       C  0.42436981  0.45680727  0.49297842     0.04500
C1309       C  0.43820359  0.46571942  0.50252294     0.18700
C1310       C  0.44399430  0.44659045  0.50811370    -0.19300
C1311       C  0.44711765  0.49406044  0.50629713    -0.20600
C1312       C  0.44331990  0.51415569  0.50067790    -0.19100
C1313       C  0.43109989  0.50660858  0.49107793     0.20100
C1314       C  0.42158760  0.47791243  0.48703961     0.02200
C1315       C  0.41038752  0.47193817  0.47716428    -0.13800
C1316       C  0.40756727  0.49313999  0.47171283    -0.11500
C1317       C  0.41588722  0.52090020  0.47590189     0.01800
C1318       C  0.42817341  0.52764342  0.48551814    -0.23700
H1319       H  0.41339143  0.38654539  0.49251191     0.09800
H1320       H  0.40225052  0.41828844  0.48287185     0.13300
H1321       H  0.45584285  0.45422757  0.51517261     0.12100
H1322       H  0.45735313  0.50084082  0.51361366     0.13200
H1323       H  0.45047305  0.53596574  0.50380172     0.12300
H1324       H  0.40361501  0.45111503  0.47345052     0.09400
H1325       H  0.39812640  0.48746285  0.46427407     0.12600
H1326       H  0.43481129  0.54913089  0.48881452     0.14500
C1327       C  0.73340394  0.53927164  0.58242310    -0.01000
C1328       C  0.76338032  0.55635945  0.57924444    -0.09000
C1329       C  0.77172763  0.55088852  0.57005436    -0.17900
C1330       C  0.75027857  0.52762556  0.56379991     0.04500
C1331       C  0.71949562  0.51193261  0.56674530     0.18700
C1332       C  0.71135152  0.51804569  0.57593077    -0.19300
C1333       C  0.69720042  0.48916298  0.56074339    -0.20600
C1334       C  0.70497548  0.48048029  0.55212327    -0.19100
C1335       C  0.73524326  0.49428098  0.54931389     0.20100
C1336       C  0.75832952  0.51851680  0.55496433     0.02200
C1337       C  0.78851327  0.53174612  0.55170101    -0.13800
C1338       C  0.79543815  0.52090573  0.54331647    -0.11500
C1339       C  0.77264622  0.49648439  0.53796451     0.01800
C1340       C  0.74256988  0.48353162  0.54096366    -0.23700
H1341       H  0.78077143  0.57320306  0.58406759     0.09800
H1342       H  0.79531733  0.56453185  0.56822542     0.13300
H1343       H  0.68801892  0.50484835  0.57828505     0.12100
H1344       H  0.67365897  0.47737847  0.56287895     0.13200
H1345       H  0.68724607  0.46227629  0.54776060     0.12300
H1346       H  0.80732048  0.55028590  0.55552189     0.09400
H1347       H  0.81879091  0.53149341  0.54107408     0.12600
H1348       H  0.72467463  0.46495833  0.53675819     0.14500
C1349       C  0.74493766  0.36666239  0.51147352    -0.01000
C1350       C  0.73112294  0.34897094  0.50302212    -0.09000
C1351       C  0.71188233  0.31785474  0.50381888    -0.17900
C1352       C  0.70548595  0.30356189  0.51317951     0.04500
C1353       C  0.72120413  0.32152069  0.52161199     0.18700
C1354       C  0.74084222  0.35260348  0.52066824    -0.19300
C1355       C  0.71618148  0.30865747  0.53104606    -0.20600
C1356       C  0.69462072  0.27857514  0.53241092    -0.19100
C1357       C  0.67745037  0.26072728  0.52438391     0.20100
C1358       C  0.68305240  0.27256448  0.51459396     0.02200
C1359       C  0.66476370  0.25323286  0.50679449    -0.13800
C1360       C  0.64055651  0.22418386  0.50878902    -0.11500
C1361       C  0.63416866  0.21366040  0.51855797     0.01800
C1362       C  0.65350561  0.23154278  0.52622621    -0.23700
H1363       H  0.73440836  0.35932224  0.49579312     0.09800
H1364       H  0.70161777  0.30575954  0.49703557     0.13300
H1365       H  0.75167424  0.36608769  0.52723413     0.12100
H1366       H  0.72832349  0.32218588  0.53747303     0.13200
H1367       H  0.69054135  0.26948802  0.53986758     0.12300
H1368       H  0.66782707  0.26030822  0.49915133     0.09400
H1369       H  0.62589488  0.21056500  0.50274867     0.12600
H1370       H  0.64889438  0.22324908  0.53379213     0.14500
C1371       C  0.56915458  0.42606032  0.50680597    -0.01000
C1372       C  0.59171510  0.45113083  0.51196939    -0.09000
C1373       C  0.62188265  0.46521673  0.50907544    -0.17900
C1374       C  0.63045766  0.45390512  0.50108530     0.04500
C1375       C  0.60733962  0.42869285  0.49580216     0.18700
C1376       C  0.57702227  0.41572692  0.49849024    -0.19300
C1377       C  0.61474282  0.41525754  0.48831887    -0.20600
C1378       C  0.64473766  0.42464595  0.48658509    -0.19100
C1379       C  0.66795844  0.44857453  0.49197498     0.20100
C1380       C  0.66123453  0.46494704  0.49874617     0.02200
C1381       C  0.68566816  0.49053258  0.50333425    -0.13800
C1382       C  0.71505425  0.49653081  0.50252786    -0.11500
C1383       C  0.72073305  0.47721123  0.49715217     0.01800
C1384       C  0.69759395  0.45475420  0.49126149    -0.23700
H1385       H  0.58611222  0.45949582  0.51840688     0.09800
H1386       H  0.63815576  0.48380170  0.51358550     0.13300
H1387       H  0.55969875  0.39614485  0.49450277     0.12100
H1388       H  0.59719009  0.39613404  0.48422358     0.13200
H1389       H  0.64974097  0.41247517  0.48124462     0.12300
H1390       H  0.68253721  0.50544352  0.50794547     0.09400
H1391       H  0.73277527  0.51457025  0.50693568     0.12600
H1392       H  0.70203434  0.44021681  0.48686069     0.14500
C1393       C  0.13734223  0.62304364  0.46948548    -0.01000
C1394       C  0.15430213  0.62915574  0.47825932    -0.09000
C1395       C  0.17610568  0.65855645  0.48088732    -0.17900
C1396       C  0.18167217  0.68287540  0.47475515     0.04500
C1397       C  0.16238230  0.67672690  0.46637342     0.18700
C1398       C  0.14061730  0.64699969  0.46378596    -0.19300
C1399       C  0.16583514  0.70017949  0.46037168    -0.20600
C1400       C  0.18928013  0.72945931  0.46213767    -0.19100
C1401       C  0.21036287  0.73576752  0.46973596     0.20100
C1402       C  0.20659384  0.71274911  0.47630578     0.02200
C1403       C  0.22928878  0.72019031  0.48359970    -0.13800
C1404       C  0.25599233  0.74835627  0.48363544    -0.11500
C1405       C  0.26041946  0.77009542  0.47661977     0.01800
C1406       C  0.23659951  0.76437070  0.47020211    -0.23700
H1407       H  0.15164694  0.61103212  0.48292798     0.09800
H1408       H  0.18866559  0.66145732  0.48763619     0.13300
H1409       H  0.12708631  0.64248646  0.45710052     0.12100
H1410       H  0.15086358  0.69573575  0.45408682     0.13200
H1411       H  0.19196595  0.74699861  0.45715416     0.12300
H1412       H  0.22808289  0.70413324  0.48890125     0.09400
H1413       H  0.27401212  0.75235674  0.48872833     0.12600
H1414       H  0.23976268  0.78116734  0.46479263     0.14500
C1415       C  0.28992770  0.52503440  0.46651713    -0.01000
C1416       C  0.27053325  0.50890701  0.45859343    -0.09000
C1417       C  0.23962920  0.49805838  0.45909633    -0.17900
C1418       C  0.22729409  0.50368583  0.46751184     0.04500
C1419       C  0.24683545  0.51843840  0.47575516     0.18700
C1420       C  0.27762540  0.52831692  0.47526206    -0.19300
C1421       C  0.23605932  0.52520285  0.48418503    -0.20600
C1422       C  0.20702297  0.52010060  0.48427003    -0.19100
C1423       C  0.18788801  0.50746173  0.47601911     0.20100
C1424       C  0.19704810  0.49744376  0.46775617     0.02200
C1425       C  0.17615547  0.48344189  0.45984402    -0.13800
C1426       C  0.14900181  0.48288766  0.45961311    -0.11500
C1427       C  0.14183542  0.49607257  0.46725716     0.01800
C1428       C  0.16051770  0.50672321  0.47569245    -0.23700
H1429       H  0.27945840  0.50574042  0.45180050     0.09800
H1430       H  0.22633107  0.48679602  0.45257689     0.13300
H1431       H  0.29242817  0.54056543  0.48146941     0.12100
H1432       H  0.25074409  0.53608794  0.49054098     0.13200
H1433       H  0.19992609  0.52720849  0.49067502     0.12300
H1434       H  0.18071542  0.47389651  0.45353808     0.09400
H1435       H  0.13469963  0.47413792  0.45306359     0.12600
H1436       H  0.15484853  0.51651224  0.48171263     0.14500
C1437       C  0.99624175  0.50122084  0.47016912    -0.01000
C1438       C  0.98621535  0.48336697  0.47870420    -0.09000
C1439       C  0.96209471  0.48038090  0.48412759    -0.17900
C1440       C  0.94718051  0.49533716  0.48117820     0.04500
C1441       C  0.95603274  0.51169474  0.47213260     0.18700
C1442       C  0.98046559  0.51463015  0.46676465    -0.19300
C1443       C  0.94080661  0.52547345  0.46860375    -0.20600
C1444       C  0.91686020  0.52327830  0.47386784    -0.19100
C1445       C  0.90816547  0.50804133  0.48294118     0.20100
C1446       C  0.92371352  0.49449076  0.48684366     0.02200
C1447       C  0.91538240  0.48104509  0.49631844    -0.13800
C1448       C  0.89144296  0.47951139  0.50141816    -0.11500
C1449       C  0.87489231  0.49113820  0.49726396     0.01800
C1450       C  0.88378144  0.50596385  0.48810326    -0.23700
H1451       H  0.99774628  0.47244649  0.48142221     0.09800
H1452       H  0.95576175  0.46632292  0.49061787     0.13300
H1453       H  0.98782535  0.52822593  0.46009791     0.12100
H1454       H  0.94733355  0.53787007  0.46168892     0.13200
H1455       H  0.90526009  0.53383405  0.47086980     0.12300
H1456       H  0.92693356  0.47152329  0.50000059     0.09400
H1457       H  0.88523024  0.46819825  0.50852710     0.12600
H1458       H  0.87132979  0.51536657  0.48488480     0.14500
C1459       C  0.80262873  0.31468585  0.10790956    -0.01000
C1460       C  0.79553308  0.29586767  0.09968585    -0.09000
C1461       C  0.80367719  0.30777170  0.09014356    -0.17900
C1462       C  0.81847118  0.33907032  0.08849811     0.04500
C1463       C  0.82595772  0.35809026  0.09691073     0.18700
C1464       C  0.81879416  0.34584600  0.10650841    -0.19300
C1465       C  0.83902877  0.38904790  0.09566545    -0.20600
C1466       C  0.84361101  0.40141009  0.08622119    -0.19100
C1467       C  0.83617384  0.38326895  0.07779486     0.20100
C1468       C  0.82462645  0.35202227  0.07880383     0.02200
C1469       C  0.81909236  0.33504782  0.07004768    -0.13800
C1470       C  0.82291870  0.34816492  0.06070956    -0.11500
C1471       C  0.83213558  0.37845930  0.05978783     0.01800
C1472       C  0.83943113  0.39605525  0.06835282    -0.38100
H1473       H  0.78279171  0.27171692  0.10061011     0.09800
H1474       H  0.79673237  0.29178595  0.08417480     0.13300
H1475       H  0.82377503  0.36050837  0.11283603     0.12100
H1476       H  0.84472051  0.40366579  0.10203993     0.13200
H1477       H  0.85275035  0.42529872  0.08550320     0.12300
H1478       H  0.81151769  0.31153222  0.07016558     0.09400
H1479       H  0.81729828  0.33414768  0.05418207     0.12600
H1480       H  0.84694413  0.41961932  0.06767626     0.14500
C1481       C  0.78555272  0.22964558  0.15235592    -0.01000
C1482       C  0.77613169  0.20113895  0.14857537    -0.09000
C1483       C  0.78067039  0.18099752  0.15391121    -0.17900
C1484       C  0.79500350  0.18866678  0.16331450     0.04500
C1485       C  0.80536549  0.21791499  0.16705884     0.18700
C1486       C  0.80039596  0.23803652  0.16160420    -0.19300
C1487       C  0.82061254  0.22682778  0.17620700    -0.20600
C1488       C  0.82620631  0.20748773  0.18163107    -0.19100
C1489       C  0.81615847  0.17853020  0.17814181     0.20100
C1490       C  0.79981222  0.16847320  0.16903680     0.02200
C1491       C  0.78898672  0.13860440  0.16604026    -0.13800
C1492       C  0.79535197  0.12003843  0.17160502    -0.11500
C1493       C  0.81266902  0.13046032  0.18031946     0.01800
C1494       C  0.82262704  0.15961559  0.18364352    -0.23700
H1495       H  0.76472641  0.19404056  0.14144126     0.09800
H1496       H  0.77285418  0.15970758  0.15040551     0.13300
H1497       H  0.80784501  0.26006682  0.16459161     0.12100
H1498       H  0.82859666  0.24904057  0.17913150     0.13200
H1499       H  0.83848185  0.21524184  0.18860748     0.12300
H1500       H  0.77555463  0.12883256  0.15943954     0.09400
H1501       H  0.78716242  0.09753333  0.16892660     0.12600
H1502       H  0.83575262  0.16775080  0.19045712     0.14500
C1503       C  0.57809152  0.49949352  0.05857736    -0.01000
C1504       C  0.60713313  0.52320415  0.06111228    -0.09000
C1505       C  0.61641769  0.52941405  0.07102324    -0.17900
C1506       C  0.59671804  0.51207930  0.07875633     0.04500
C1507       C  0.56659128  0.48942563  0.07615323     0.18700
C1508       C  0.55772720  0.48307400  0.06614299    -0.19300
C1509       C  0.54566666  0.47279348  0.08354784    -0.20600
C1510       C  0.55418972  0.47767336  0.09349309    -0.19100
C1511       C  0.58410463  0.49853470  0.09625897     0.20100
C1512       C  0.60592568  0.51594544  0.08894223     0.02200
C1513       C  0.63627079  0.53526354  0.09210438    -0.13800
C1514       C  0.64465093  0.53631460  0.10205692    -0.11500
C1515       C  0.62296004  0.51915273  0.10917801     0.01800
C1516       C  0.59262713  0.50099513  0.10628080    -0.23700
H1517       H  0.62321185  0.53637857  0.05538794     0.09800
H1518       H  0.63916262  0.54780173  0.07239247     0.13300
H1519       H  0.53507631  0.46494616  0.06423516     0.12100
H1520       H  0.52258984  0.45573912  0.08162347     0.13200
H1521       H  0.53750224  0.46426647  0.09904271     0.12300
H1522       H  0.65425308  0.54874097  0.08701017     0.09400
H1523       H  0.66824824  0.55024664  0.10417759     0.12600
H1524       H  0.57588507  0.48713565  0.11176908     0.14500
C1525       C  0.69092139  0.45433096  0.14183106    -0.01000
C1526       C  0.68854380  0.43846065  0.15052373    -0.09000
C1527       C  0.70151382  0.42092627  0.15118253    -0.17900
C1528       C  0.71728488  0.41862367  0.14309514     0.04500
C1529       C  0.72023144  0.43542429  0.13438864     0.18700
C1530       C  0.70716108  0.45299292  0.13384895    -0.19300
C1531       C  0.73577650  0.43424406  0.12618103    -0.20600
C1532       C  0.74799687  0.41622194  0.12632650    -0.19100
C1533       C  0.74478756  0.39877649  0.13465759     0.20100
C1534       C  0.72967447  0.39985171  0.14321906     0.02200
C1535       C  0.72691165  0.38140462  0.15137532    -0.13800
C1536       C  0.73736297  0.36167927  0.15082337    -0.11500
C1537       C  0.75108818  0.35995152  0.14219614     0.01800
C1538       C  0.75559247  0.37930585  0.13428649    -0.23700
H1539       H  0.67621574  0.43924663  0.15681879     0.09800
H1540       H  0.69853918  0.40922971  0.15808136     0.13300
H1541       H  0.70920917  0.46526643  0.12709821     0.12100
H1542       H  0.73818866  0.44708457  0.11954594     0.13200
H1543       H  0.75952461  0.41545938  0.11978778     0.12300
H1544       H  0.71593147  0.38098387  0.15815944     0.09400
H1545       H  0.73344292  0.34677882  0.15700025     0.12600
H1546       H  0.76623551  0.37815517  0.12756825     0.14500
C1547       C  0.81724272  0.85230479  0.19604630    -0.01000
C1548       C  0.79768190  0.85581200  0.20214186    -0.09000
C1549       C  0.79253764  0.87920017  0.20047179    -0.17900
C1550       C  0.80734535  0.90014687  0.19271286     0.04500
C1551       C  0.82645903  0.89580217  0.18641174     0.18700
C1552       C  0.83072475  0.87183936  0.18801551    -0.19300
C1553       C  0.84239556  0.91616092  0.17879956    -0.20600
C1554       C  0.84094799  0.94169145  0.17757762    -0.19100
C1555       C  0.82306734  0.94716151  0.18381923     0.20100
C1556       C  0.80518657  0.92603922  0.19126420     0.02200
C1557       C  0.78693257  0.93245658  0.19716343    -0.13800
C1558       C  0.78852289  0.95986859  0.19629372    -0.11500
C1559       C  0.80799866  0.98149686  0.18946359     0.01800
C1560       C  0.82415936  0.97440712  0.18295584    -0.23700
H1561       H  0.78693097  0.84092314  0.20837960     0.09800
H1562       H  0.77773754  0.88091549  0.20558298     0.13300
H1563       H  0.84588595  0.86931540  0.18323499     0.12100
H1564       H  0.85693174  0.91285808  0.17396754     0.13200
H1565       H  0.85444356  0.95760678  0.17184751     0.12300
H1566       H  0.77195129  0.91718300  0.20272098     0.09400
H1567       H  0.77560818  0.96473716  0.20135466     0.12600
H1568       H  0.83918829  0.99093148  0.17760211     0.14500
C1569       C  0.78763938  0.70787596  0.18746217    -0.01000
C1570       C  0.75725801  0.68941208  0.19009876    -0.09000
C1571       C  0.73716456  0.66509606  0.18411175    -0.17900
C1572       C  0.74689927  0.65870616  0.17520421     0.04500
C1573       C  0.77783100  0.67755472  0.17263678     0.18700
C1574       C  0.79776519  0.70151515  0.17878649    -0.19300
C1575       C  0.78875066  0.67270496  0.16386731    -0.20600
C1576       C  0.76966525  0.64927392  0.15757666    -0.19100
C1577       C  0.73926046  0.62990867  0.15995699     0.20100
C1578       C  0.72727143  0.63434335  0.16876155     0.02200
C1579       C  0.69633211  0.61389874  0.17076354    -0.13800
C1580       C  0.67851996  0.58942716  0.16450302    -0.11500
C1581       C  0.69082997  0.58472963  0.15602758     0.01800
C1582       C  0.72100995  0.60556307  0.15368042    -0.23700
H1583       H  0.74887154  0.69399609  0.19675241     0.09800
H1584       H  0.71413023  0.65197457  0.18659007     0.13300
H1585       H  0.82119983  0.71579409  0.17664443     0.12100
H1586       H  0.81226979  0.68714558  0.16185641     0.13200
H1587       H  0.77887460  0.64601751  0.15086205     0.12300
H1588       H  0.68541380  0.61581164  0.17721540     0.09400
H1589       H  0.65520344  0.57370777  0.16644530     0.12600
H1590       H  0.73074568  0.60225382  0.14710380     0.14500
C1591       C  0.39820277  0.13261895  0.10080403    -0.01000
C1592       C  0.38527451  0.13987402  0.09297910    -0.09000
C1593       C  0.38850067  0.13348286  0.08317899    -0.17900
C1594       C  0.40584540  0.12061020  0.08092788     0.04500
C1595       C  0.41781796  0.11225017  0.08897683     0.18700
C1596       C  0.41317913  0.11753710  0.09877697    -0.19300
C1597       C  0.43601279  0.10042345  0.08722166    -0.20600
C1598       C  0.44414787  0.09835190  0.07763189    -0.19100
C1599       C  0.43371985  0.10742639  0.06956749     0.20100
C1600       C  0.41340388  0.11750977  0.07103731     0.02200
C1601       C  0.40271683  0.12531112  0.06256213    -0.13800
C1602       C  0.41360530  0.12530869  0.05314733    -0.11500
C1603       C  0.43540399  0.11760009  0.05189928     0.01800
C1604       C  0.44461288  0.10774543  0.06007671    -0.23700
H1605       H  0.37349271  0.15144459  0.09442030     0.09800
H1606       H  0.37851760  0.14031390  0.07752856     0.13300
H1607       H  0.42348827  0.11213091  0.10481530     0.12100
H1608       H  0.44509853  0.09393898  0.09333877     0.13200
H1609       H  0.45931998  0.09029498  0.07653661     0.12300
H1610       H  0.38654416  0.13220504  0.06298818     0.09400
H1611       H  0.40610626  0.13293433  0.04689523     0.12600
H1612       H  0.46126844  0.10147317  0.05911389     0.14500
C1613       C  0.55313154  0.42273381  0.14172582    -0.01000
C1614       C  0.53413525  0.41313569  0.13335341    -0.09000
C1615       C  0.51014608  0.38350882  0.13250324    -0.17900
C1616       C  0.50499482  0.36225316  0.13993746     0.04500
C1617       C  0.52258324  0.37284847  0.14882882     0.18700
C1618       C  0.54609026  0.40305737  0.14971522    -0.19300
C1619       C  0.51812938  0.35279749  0.15647209    -0.20600
C1620       C  0.49821417  0.32215131  0.15519679    -0.19100
C1621       C  0.48231491  0.31085414  0.14624771     0.20100
C1622       C  0.48462084  0.33072026  0.13860229     0.02200
C1623       C  0.46794775  0.31798897  0.12971858    -0.13800
C1624       C  0.45155257  0.28693506  0.12824079    -0.11500
C1625       C  0.45087540  0.26762773  0.13559399     0.01800
C1626       C  0.46535935  0.27972129  0.14471633    -0.23700
H1627       H  0.53885670  0.42826226  0.12717404     0.09800
H1628       H  0.49710424  0.37765141  0.12571914     0.13300
H1629       H  0.56067142  0.41046088  0.15623212     0.12100
H1630       H  0.53112715  0.36072566  0.16331456     0.13200
H1631       H  0.49619693  0.30708566  0.16110100     0.12300
H1632       H  0.46797309  0.33141051  0.12362923     0.09400
H1633       H  0.44020665  0.27809493  0.12117893     0.12600
H1634       H  0.46469703  0.26492736  0.15050498     0.14500
C1635       C  0.65794039  0.22911215  0.13449480    -0.01000
C1636       C  0.64157980  0.22153354  0.14332534    -0.09000
C1637       C  0.61042631  0.20934307  0.14317242    -0.17900
C1638       C  0.59455635  0.20469154  0.13412064     0.04500
C1639       C  0.61122357  0.21197149  0.12516262     0.18700
C1640       C  0.64248060  0.22357586  0.12542315    -0.19300
C1641       C  0.59683244  0.20876692  0.11601561    -0.20600
C1642       C  0.56650757  0.19977893  0.11558487    -0.19100
C1643       C  0.54966129  0.19308206  0.12427601     0.20100
C1644       C  0.56308786  0.19435461  0.13364788     0.02200
C1645       C  0.54452793  0.18587194  0.14213399    -0.13800
C1646       C  0.51450744  0.17838722  0.14139733    -0.11500
C1647       C  0.50214497  0.17926859  0.13222694     0.01800
C1648       C  0.51961772  0.18587222  0.12366782    -0.23700
H1649       H  0.65303086  0.22568418  0.15043471     0.09800
H1650       H  0.59961364  0.20477870  0.15028791     0.13300
H1651       H  0.65500970  0.22960787  0.11855187     0.12100
H1652       H  0.60935292  0.21416587  0.10916057     0.13200
H1653       H  0.55625504  0.19844816  0.10840725     0.12300
H1654       H  0.55262726  0.18511179  0.14946147     0.09400
H1655       H  0.50128852  0.17302100  0.14808689     0.12600
H1656       H  0.50997683  0.18603385  0.11650442     0.14500
C1657       C  0.94221783  0.84851071  0.19356729    -0.01000
C1658       C  0.96533316  0.85356921  0.20022256    -0.09000
C1659       C  0.99427129  0.87907852  0.19935366    -0.17900
C1660       C  0.00078777  0.90043729  0.19179989     0.04500
C1661       C  0.97813323  0.89336390  0.18445524     0.18700
C1662       C  0.94923136  0.86762879  0.18540194    -0.19300
C1663       C  0.98380804  0.91293857  0.17653706    -0.20600
C1664       C  0.01076719  0.94045154  0.17611375    -0.19100
C1665       C  0.03228708  0.94929811  0.18373502     0.20100
C1666       C  0.02807108  0.92925151  0.19158107     0.02200
C1667       C  0.05021611  0.93986241  0.19924156    -0.13800
C1668       C  0.07405000  0.96985088  0.19949285    -0.11500
C1669       C  0.07694325  0.98979662  0.19200305     0.01800
C1670       C  0.05691502  0.97890145  0.18389518    -0.23700
H1671       H  0.96060231  0.83876171  0.20649276     0.09800
H1672       H  0.01070133  0.88202650  0.20490244     0.13300
H1673       H  0.93161484  0.86354748  0.18010026     0.12100
H1674       H  0.96683269  0.90741353  0.17082006     0.13200
H1675       H  0.01405996  0.95558337  0.17006979     0.12300
H1676       H  0.04880875  0.92604188  0.20541296     0.09400
H1677       H  0.08951510  0.97771193  0.20577552     0.12600
H1678       H  0.05911863  0.99411852  0.17801445     0.14500
C1679       C  0.07324899  0.11484002  0.18514214    -0.01000
C1680       C  0.05186708  0.09862112  0.17769813    -0.09000
C1681       C  0.02597788  0.10008040  0.17670271    -0.17900
C1682       C  0.02032216  0.11734510  0.18334887     0.04500
C1683       C  0.04338639  0.13582230  0.19031939     0.18700
C1684       C  0.06977136  0.13474445  0.19105491    -0.19300
C1685       C  0.03911605  0.15373042  0.19694983    -0.20600
C1686       C  0.01156927  0.15207447  0.19729365    -0.19100
C1687       C  0.98766655  0.13242851  0.19103104     0.20100
C1688       C  0.99198825  0.11550707  0.18374238     0.02200
C1689       C  0.96715454  0.09605454  0.17758224    -0.13800
C1690       C  0.93881643  0.09206683  0.17905869    -0.11500
C1691       C  0.93425724  0.10742261  0.18663781     0.01800
C1692       C  0.95900651  0.12840001  0.19236749    -0.23700
H1693       H  0.05443455  0.08356486  0.17290725     0.09800
H1694       H  0.01028994  0.08638874  0.17094716     0.13300
H1695       H  0.08639577  0.14756286  0.19678908     0.12100
H1696       H  0.05676558  0.16819639  0.20218474     0.13200
H1697       H  0.00855975  0.16535000  0.20276964     0.12300
H1698       H  0.96851814  0.08274356  0.17179408     0.09400
H1699       H  0.92007973  0.07584983  0.17448056     0.12600
H1700       H  0.95567123  0.14050005  0.19821095     0.14500
C1701       C  0.33418581  0.13005154  0.14765189    -0.01000
C1702       C  0.33447947  0.12236164  0.15759797    -0.09000
C1703       C  0.31051096  0.11598205  0.16383827    -0.17900
C1704       C  0.28559898  0.11752203  0.16030781     0.04500
C1705       C  0.28482813  0.12384588  0.15007653     0.18700
C1706       C  0.30876504  0.12967332  0.14388053    -0.19300
C1707       C  0.26073729  0.12548748  0.14613205    -0.20600
C1708       C  0.23774464  0.12198646  0.15220479    -0.19100
C1709       C  0.23822818  0.11663112  0.16235880     0.20100
C1710       C  0.26186293  0.11383408  0.16656111     0.02200
C1711       C  0.26088710  0.10798429  0.17685584    -0.13800
C1712       C  0.23745939  0.10505758  0.18268953    -0.11500
C1713       C  0.21450514  0.10816719  0.17849866     0.01800
C1714       C  0.21509897  0.11404624  0.16833614    -0.23700
H1715       H  0.35380233  0.12233012  0.16066991     0.09800
H1716       H  0.31258953  0.11079356  0.17143936     0.13300
H1717       H  0.30820035  0.13539218  0.13616866     0.12100
H1718       H  0.25998255  0.13012593  0.13832195     0.13200
H1719       H  0.21962532  0.12383538  0.14895187     0.12300
H1720       H  0.27779145  0.10542884  0.18061844     0.09400
H1721       H  0.23726912  0.10023809  0.19052345     0.12600
H1722       H  0.19712057  0.11601211  0.16500800     0.14500
C1723       C  0.79311080  0.99523479  0.27475639    -0.01000
C1724       C  0.81875249  0.99886690  0.27010208    -0.09000
C1725       C  0.82727679  0.01208857  0.26077623    -0.17900
C1726       C  0.81018783  0.02201609  0.25570290     0.04500
C1727       C  0.78352167  0.01731674  0.26027575     0.18700
C1728       C  0.77547470  0.00442452  0.26978449    -0.19300
C1729       C  0.76498020  0.02529153  0.25528851    -0.20600
C1730       C  0.77195075  0.03709907  0.24574010    -0.19100
C1731       C  0.79817715  0.04218837  0.24108825     0.20100
C1732       C  0.81820143  0.03567184  0.24614358     0.02200
C1733       C  0.84534622  0.04301208  0.24139025    -0.13800
C1734       C  0.85131685  0.05437565  0.23176255    -0.11500
C1735       C  0.83056970  0.05887079  0.22655813     0.01800
C1736       C  0.80432470  0.05334805  0.23134290    -0.23700
H1737       H  0.83274855  0.99192406  0.27376686     0.09800
H1738       H  0.84714124  0.01380776  0.25768899     0.13300
H1739       H  0.75550918  0.00159688  0.27331617     0.12100
H1740       H  0.74460686  0.02177532  0.25871038     0.13200
H1741       H  0.75673859  0.04231968  0.24197149     0.12300
H1742       H  0.86242437  0.04020239  0.24489759     0.09400
H1743       H  0.87195379  0.05884763  0.22827854     0.12600
H1744       H  0.78833298  0.05716968  0.22741127     0.14500
C1745       C  0.46405343  0.72202377  0.39315142    -0.01000
C1746       C  0.43775121  0.71622186  0.39794575    -0.09000
C1747       C  0.42650170  0.69663850  0.40601682    -0.17900
C1748       C  0.44111477  0.68186318  0.40950656     0.04500
C1749       C  0.46860461  0.68900028  0.40492232     0.18700
C1750       C  0.47978189  0.70893039  0.39685592    -0.19300
C1751       C  0.48448818  0.67575011  0.40828755    -0.20600
C1752       C  0.47378444  0.65565480  0.41617245    -0.19100
C1753       C  0.44659379  0.64780692  0.42076141     0.20100
C1754       C  0.42955124  0.66036096  0.41737118     0.02200
C1755       C  0.40157507  0.65062475  0.42195667    -0.13800
C1756       C  0.39173837  0.63053232  0.42988269    -0.11500
C1757       C  0.40935899  0.61945312  0.43354801     0.01800
C1758       C  0.43652219  0.62775431  0.42881766    -0.23700
H1759       H  0.42530410  0.72624243  0.39527313     0.09800
H1760       H  0.40614496  0.69332024  0.40930030     0.13300
H1761       H  0.50016996  0.71327771  0.39319559     0.12100
H1762       H  0.50544982  0.68108353  0.40482212     0.13200
H1763       H  0.48681392  0.64606064  0.41867059     0.12300
H1764       H  0.38678216  0.65822334  0.41962297     0.09400
H1765       H  0.37057843  0.62438797  0.43336409     0.12600
H1766       H  0.45025119  0.61917909  0.43156067     0.14500
C1767       C  0.57112533  0.82255129  0.35067807    -0.01000
C1768       C  0.59196657  0.85081864  0.35462761    -0.09000
C1769       C  0.61690026  0.87167833  0.34908328    -0.17900
C1770       C  0.62128848  0.86493598  0.33930836     0.04500
C1771       C  0.59980557  0.83621434  0.33538450     0.18700
C1772       C  0.57545794  0.81536880  0.34110903    -0.19300
C1773       C  0.60235609  0.82846124  0.32569501    -0.20600
C1774       C  0.62608802  0.84857455  0.31977423    -0.19100
C1775       C  0.64801548  0.87677294  0.32344832     0.20100
C1776       C  0.64601758  0.88550197  0.33325348     0.02200
C1777       C  0.66909498  0.91421486  0.33657480    -0.13800
C1778       C  0.69351284  0.93295620  0.33051234    -0.11500
C1779       C  0.69559678  0.92379056  0.32096948     0.01800
C1780       C  0.67243395  0.89595856  0.31741916    -0.23700
H1781       H  0.58884582  0.85691561  0.36198614     0.09800
H1782       H  0.63198562  0.89299281  0.35257916     0.13300
H1783       H  0.55913755  0.79370038  0.33793009     0.12100
H1784       H  0.58583421  0.80665665  0.32266361     0.13200
H1785       H  0.62751578  0.84186130  0.31230633     0.12300
H1786       H  0.66933145  0.92252978  0.34388866     0.09400
H1787       H  0.71134238  0.95431154  0.33344492     0.12600
H1788       H  0.67396280  0.88864173  0.31005356     0.14500
C1789       C  0.87699856  0.79866186  0.23350665    -0.01000
C1790       C  0.88150278  0.77729684  0.23815026    -0.09000
C1791       C  0.89729494  0.78378769  0.24718562    -0.17900
C1792       C  0.90954557  0.81222000  0.25176751     0.04500
C1793       C  0.90470475  0.83364327  0.24698771     0.18700
C1794       C  0.88823925  0.82655318  0.23807938    -0.19300
C1795       C  0.91685437  0.86236614  0.25098968    -0.20600
C1796       C  0.93381800  0.87043749  0.25968837    -0.19100
C1797       C  0.93868269  0.84984460  0.26468082     0.20100
C1798       C  0.92656489  0.82036655  0.26085024     0.02200
C1799       C  0.93175907  0.80037683  0.26636024    -0.13800
C1800       C  0.94760026  0.80913295  0.27539576    -0.11500
C1801       C  0.95920983  0.83813911  0.27913155     0.01800
C1802       C  0.95510029  0.85849377  0.27363049    -0.23700
H1803       H  0.87327450  0.75567096  0.23469888     0.09800
H1804       H  0.90010492  0.76638000  0.25027926     0.13300
H1805       H  0.88525038  0.84340893  0.23447987     0.12100
H1806       H  0.91336324  0.87880729  0.24732875     0.13200
H1807       H  0.94295030  0.89289519  0.26258887     0.12300
H1808       H  0.92331859  0.77766588  0.26399963     0.09400
H1809       H  0.95043457  0.79297740  0.27954055     0.12600
H1810       H  0.96374144  0.88090270  0.27651058     0.14500
C1811       C  0.91175125  0.85590446  0.31841502    -0.01000
C1812       C  0.91182673  0.87403127  0.32602614    -0.09000
C1813       C  0.89000925  0.88190390  0.32624743    -0.17900
C1814       C  0.86789375  0.87256965  0.31862910     0.04500
C1815       C  0.86670352  0.85248415  0.31131884     0.18700
C1816       C  0.88804924  0.84376304  0.31143388    -0.19300
C1817       C  0.84572300  0.84305034  0.30349352    -0.20600
C1818       C  0.82742255  0.85491185  0.30233157    -0.19100
C1819       C  0.82929203  0.87607257  0.30906852     0.20100
C1820       C  0.84850287  0.88414355  0.31757123     0.02200
C1821       C  0.84864434  0.90472856  0.32434214    -0.13800
C1822       C  0.83259613  0.91871294  0.32229242    -0.11500
C1823       C  0.81567535  0.91250815  0.31350188     0.01800
C1824       C  0.81312920  0.89026236  0.30711349    -0.23700
H1825       H  0.92981862  0.88353048  0.33153591     0.09800
H1826       H  0.89223596  0.89678547  0.33214326     0.13300
H1827       H  0.88788097  0.82979509  0.30548676     0.12100
H1828       H  0.84451610  0.82752645  0.29794808     0.13200
H1829       H  0.81243894  0.84824326  0.29593293     0.12300
H1830       H  0.86153202  0.91109159  0.33117064     0.09400
H1831       H  0.83433350  0.93528791  0.32748341     0.12600
H1832       H  0.79959051  0.88488472  0.30038922     0.14500
C1833       C  0.24247704  0.79020065  0.38956161    -0.01000
C1834       C  0.24638906  0.81515156  0.39474310    -0.09000
C1835       C  0.26167647  0.82354836  0.40388061    -0.17900
C1836       C  0.27390414  0.80731409  0.40810824     0.04500
C1837       C  0.26949338  0.78179278  0.40285743     0.18700
C1838       C  0.25381957  0.77345557  0.39374209    -0.19300
C1839       C  0.28101216  0.76483820  0.40667148    -0.20600
C1840       C  0.29666906  0.77248450  0.41565521    -0.19100
C1841       C  0.30126939  0.79732160  0.42105747     0.20100
C1842       C  0.29020433  0.81529994  0.41734523     0.02200
C1843       C  0.29577281  0.84028127  0.42309754    -0.13800
C1844       C  0.31055739  0.84633983  0.43230175    -0.11500
C1845       C  0.32058947  0.82800555  0.43604845     0.01800
C1846       C  0.31638709  0.80388733  0.43026988    -0.23700
H1847       H  0.23792289  0.82852712  0.39165952     0.09800
H1848       H  0.26376861  0.84298678  0.40740102     0.13300
H1849       H  0.25114587  0.75424470  0.38976121     0.12100
H1850       H  0.27780736  0.74542703  0.40268682     0.13200
H1851       H  0.30508827  0.75872849  0.41843073     0.12300
H1852       H  0.28859168  0.85530805  0.42076629     0.09400
H1853       H  0.31362553  0.86519214  0.43659620     0.12600
H1854       H  0.32404119  0.78952696  0.43308999     0.14500
C1855       C  0.42955880  0.79803340  0.35592864    -0.01000
C1856       C  0.42634549  0.81659668  0.36255937    -0.09000
C1857       C  0.40469725  0.82421738  0.36086067    -0.17900
C1858       C  0.38515715  0.81299311  0.35249892     0.04500
C1859       C  0.38956605  0.79536142  0.34553827     0.18700
C1860       C  0.41188051  0.78843273  0.34723867    -0.19300
C1861       C  0.37055691  0.78329328  0.33722025    -0.20600
C1862       C  0.34565171  0.78624225  0.33609495    -0.19100
C1863       C  0.33950451  0.80166978  0.34319481     0.20100
C1864       C  0.36005419  0.81670031  0.35118926     0.02200
C1865       C  0.35338936  0.83305775  0.35789999    -0.13800
C1866       C  0.32558375  0.83103001  0.35749451    -0.11500
C1867       C  0.30389426  0.81300297  0.35034684     0.01800
C1868       C  0.31176875  0.80013602  0.34280653    -0.23700
H1869       H  0.43994893  0.82448857  0.36927665     0.09800
H1870       H  0.40299724  0.83784443  0.36645960     0.13300
H1871       H  0.41433494  0.77414457  0.34203142     0.12100
H1872       H  0.37407716  0.77019081  0.33181513     0.13200
H1873       H  0.33037417  0.77524852  0.32987519     0.12300
H1874       H  0.36849343  0.84637597  0.36383972     0.09400
H1875       H  0.32018080  0.84164515  0.36330053     0.12600
H1876       H  0.29524213  0.78664747  0.33712725     0.14500
C1877       C  0.15215101  0.80083173  0.34621439    -0.01000
C1878       C  0.13121825  0.80274910  0.35207662    -0.09000
C1879       C  0.10966772  0.80764185  0.34775868    -0.17900
C1880       C  0.10808223  0.81028402  0.33734828     0.04500
C1881       C  0.13003053  0.80921933  0.33146427     0.18700
C1882       C  0.15184341  0.80469477  0.33593029    -0.19300
C1883       C  0.12985569  0.81229206  0.32114792    -0.20600
C1884       C  0.10844007  0.81666682  0.31652580    -0.19100
C1885       C  0.08645568  0.81770479  0.32209735     0.20100
C1886       C  0.08562539  0.81404232  0.33257256     0.02200
C1887       C  0.06228583  0.81423508  0.33779592    -0.13800
C1888       C  0.04162601  0.81934054  0.33288858    -0.11500
C1889       C  0.04351534  0.82447113  0.32265275     0.01800
C1890       C  0.06558441  0.82294631  0.31726536    -0.23700
H1891       H  0.13131756  0.80018199  0.36005574     0.09800
H1892       H  0.09449556  0.80905577  0.35277492     0.13300
H1893       H  0.16804062  0.80325021  0.33134646     0.12100
H1894       H  0.14649224  0.81144660  0.31662338     0.13200
H1895       H  0.10909505  0.81928413  0.30853331     0.12300
H1896       H  0.05950718  0.81079933  0.34568916     0.09400
H1897       H  0.02472982  0.82033064  0.33720676     0.12600
H1898       H  0.06706661  0.82666508  0.30931510     0.14500
C1899       C  0.16437351  0.49375308  0.38495023    -0.01000
C1900       C  0.18440002  0.51863639  0.39075445    -0.09000
C1901       C  0.17472489  0.52556781  0.39939332    -0.17900
C1902       C  0.14442787  0.50771950  0.40255254     0.04500
C1903       C  0.12429103  0.48213275  0.39674583     0.18700
C1904       C  0.13432894  0.47550087  0.38803403    -0.19300
C1905       C  0.09420613  0.46338439  0.39963896    -0.20600
C1906       C  0.08368353  0.46933278  0.40822948    -0.19100
C1907       C  0.10283603  0.49444812  0.41407017     0.20100
C1908       C  0.13341662  0.51422150  0.41126584     0.02200
C1909       C  0.15159295  0.53962063  0.41731439    -0.13800
C1910       C  0.14012360  0.54467243  0.42589292    -0.11500
C1911       C  0.11024532  0.52467416  0.42877961     0.01800
C1912       C  0.09163582  0.49972787  0.42277027    -0.23700
H1913       H  0.20766006  0.53323201  0.38851780     0.09800
H1914       H  0.19154668  0.54509895  0.40341210     0.13300
H1915       H  0.11854829  0.45628663  0.38356807     0.12100
H1916       H  0.07872301  0.44384206  0.39525441     0.13200
H1917       H  0.06034402  0.45419796  0.41030700     0.12300
H1918       H  0.17483042  0.55595635  0.41566609     0.09400
H1919       H  0.15507401  0.56401907  0.43043335     0.12600
H1920       H  0.06851800  0.48403551  0.42496209     0.14500
C1921       C  0.28675953  0.54279183  0.34951157    -0.01000
C1922       C  0.30865226  0.54209317  0.35542971    -0.09000
C1923       C  0.33916665  0.56425643  0.35449985    -0.17900
C1924       C  0.34856374  0.58821448  0.34771547     0.04500
C1925       C  0.32653894  0.58714234  0.34109505     0.18700
C1926       C  0.29605272  0.56439141  0.34198286    -0.19300
C1927       C  0.33468496  0.60994120  0.33410190    -0.20600
C1928       C  0.36353014  0.63542989  0.33424588    -0.19100
C1929       C  0.38475060  0.63857996  0.34138543     0.20100
C1930       C  0.37823319  0.61438000  0.34784482     0.02200
C1931       C  0.40079141  0.61860651  0.35476972    -0.13800
C1932       C  0.42670539  0.64689815  0.35618006    -0.11500
C1933       C  0.43111605  0.67149091  0.35060552     0.01800
C1934       C  0.41126776  0.66669422  0.34272221    -0.23700
H1935       H  0.30208075  0.52506411  0.36109270     0.09800
H1936       H  0.35460234  0.56275769  0.35951144     0.13300
H1937       H  0.27930683  0.56465409  0.33718441     0.12100
H1938       H  0.31814798  0.60887818  0.32887569     0.13200
H1939       H  0.36863787  0.65355132  0.32915023     0.12300
H1940       H  0.39822943  0.60105147  0.35963701     0.09400
H1941       H  0.44211939  0.64993654  0.36217635     0.12600
H1942       H  0.41490640  0.68553974  0.33822816     0.14500
C1943       C  0.15394063  0.53752821  0.34563241    -0.01000
C1944       C  0.13460640  0.53954961  0.35228929    -0.09000
C1945       C  0.13316609  0.56542840  0.35267216    -0.17900
C1946       C  0.15129367  0.59011895  0.34640049     0.04500
C1947       C  0.16813797  0.58636255  0.33892575     0.18700
C1948       C  0.16915845  0.56017001  0.33857832    -0.19300
C1949       C  0.18562275  0.60958875  0.33228204    -0.20600
C1950       C  0.18840957  0.63728697  0.33330288    -0.19100
C1951       C  0.17420502  0.64251846  0.34109601     0.20100
C1952       C  0.15483742  0.61889768  0.34763204     0.02200
C1953       C  0.14163430  0.62575751  0.35550621    -0.13800
C1954       C  0.14917383  0.65525476  0.35721653    -0.11500
C1955       C  0.16952353  0.67860238  0.35103462     0.01800
C1956       C  0.18081865  0.67177313  0.34273531    -0.23700
H1957       H  0.12240795  0.52214521  0.35776384     0.09800
H1958       H  0.11875974  0.56596747  0.35824265     0.13300
H1959       H  0.18383546  0.55849605  0.33331427     0.12100
H1960       H  0.19815101  0.60668109  0.32648603     0.13200
H1961       H  0.20296940  0.65517345  0.32824776     0.12300
H1962       H  0.12652781  0.60911602  0.36073737     0.09400
H1963       H  0.13989585  0.65994603  0.36361482     0.12600
H1964       H  0.19642233  0.68965491  0.33785119     0.14500
C1965       C  0.13716224  0.11610812  0.22512766    -0.01000
C1966       C  0.15605398  0.14640998  0.22766290    -0.09000
C1967       C  0.15319323  0.15716537  0.23677979    -0.17900
C1968       C  0.13120260  0.13780160  0.24369382     0.04500
C1969       C  0.11258205  0.10690924  0.24115127     0.18700
C1970       C  0.11570001  0.09644421  0.23196137    -0.19300
C1971       C  0.09073375  0.08662571  0.24775046    -0.20600
C1972       C  0.08691016  0.09632426  0.25686579    -0.19100
C1973       C  0.10468259  0.12657940  0.25956802     0.20100
C1974       C  0.12702478  0.14785746  0.25302870     0.02200
C1975       C  0.14418295  0.17818562  0.25615860    -0.13800
C1976       C  0.13985455  0.18677933  0.26548480    -0.11500
C1977       C  0.11805770  0.16559155  0.27190175     0.01800
C1978       C  0.10036705  0.13560665  0.26884617    -0.23700
H1979       H  0.17273262  0.16206863  0.22248290     0.09800
H1980       H  0.16841755  0.18079598  0.23815539     0.13300
H1981       H  0.10093745  0.07293406  0.23005717     0.12100
H1982       H  0.07651217  0.06306209  0.24585263     0.13200
H1983       H  0.06988089  0.08002958  0.26183793     0.12300
H1984       H  0.16128279  0.19579352  0.25160937     0.09400
H1985       H  0.15371498  0.21008553  0.26770241     0.12600
H1986       H  0.08357895  0.11899338  0.27381581     0.14500
C1987       C  0.01419382  0.14865823  0.30817621    -0.01000
C1988       C  0.99568419  0.15047429  0.30095269    -0.09000
C1989       C  0.96452260  0.13571118  0.30223576    -0.17900
C1990       C  0.95079009  0.11823948  0.31079505     0.04500
C1991       C  0.96984132  0.11719897  0.31823638     0.18700
C1992       C  0.00121893  0.13266280  0.31692717    -0.19300
C1993       C  0.95738827  0.09965907  0.32673977    -0.20600
C1994       C  0.92627332  0.08161092  0.32773872    -0.19100
C1995       C  0.90695017  0.08106099  0.32032562     0.20100
C1996       C  0.91882661  0.10035032  0.31196365     0.02200
C1997       C  0.89813864  0.09962013  0.30488796    -0.13800
C1998       C  0.86738283  0.07801269  0.30545779    -0.11500
C1999       C  0.85644864  0.05683115  0.31311594     0.01800
C2000       C  0.87595294  0.05976311  0.32086913    -0.23700
H2001       H  0.00524600  0.16284042  0.29414956     0.09800
H2002       H  0.95176241  0.13760280  0.29623475     0.13300
H2003       H  0.01542224  0.13115497  0.32256228     0.12100
H2004       H  0.97180105  0.09896125  0.33247101     0.13200
H2005       H  0.91728732  0.06721484  0.33418992     0.12300
H2006       H  0.90513451  0.11447635  0.29859018     0.09400
H2007       H  0.85260283  0.07636590  0.29943558     0.12600
H2008       H  0.86744657  0.04368124  0.32690747     0.14500
C2009       C  0.05964436  0.95888068  0.31211959    -0.01000
C2010       C  0.07993640  0.97533262  0.30454227    -0.09000
C2011       C  0.09684405  0.00669198  0.30480838    -0.17900
C2012       C  0.09360257  0.02261459  0.31265669     0.04500
C2013       C  0.07427501  0.00567933  0.32060654     0.18700
C2014       C  0.05784259  0.97421111  0.32031463    -0.19300
C2015       C  0.07024189  0.02017441  0.32858298    -0.20600
C2016       C  0.08345447  0.05109776  0.32855081    -0.19100
C2017       C  0.10102040  0.06823241  0.32054785     0.20100
C2018       C  0.10732827  0.05449755  0.31264632     0.02200
C2019       C  0.12550808  0.07310229  0.30480617    -0.13800
C2020       C  0.13411214  0.10325911  0.30432713    -0.11500
C2021       C  0.12520715  0.11577022  0.31168549     0.01800
C2022       C  0.11037643  0.09865469  0.32006553    -0.23700
H2023       H  0.08207061  0.96395760  0.29820613     0.09800
H2024       H  0.11145625  0.01778896  0.29860508     0.13300
H2025       H  0.04243718  0.96166472  0.32627849     0.12100
H2026       H  0.05580794  0.00739690  0.33471358     0.13200
H2027       H  0.07885596  0.06153107  0.33463745     0.12300
H2028       H  0.13207409  0.06468507  0.29868264     0.09400
H2029       H  0.14573323  0.11610771  0.29778659     0.12600
H2030       H  0.10369634  0.10830841  0.32583945     0.14500
C2031       C  0.14859464  0.27420978  0.31477054    -0.01000
C2032       C  0.14983873  0.29758050  0.30928413    -0.09000
C2033       C  0.15544893  0.32375780  0.31396370    -0.17900
C2034       C  0.15949254  0.32716312  0.32438100     0.04500
C2035       C  0.15877094  0.30354930  0.32987957     0.18700
C2036       C  0.15365360  0.27758080  0.32504153    -0.19300
C2037       C  0.16245648  0.30565276  0.34020418    -0.20600
C2038       C  0.16679506  0.33075342  0.34522929    -0.19100
C2039       C  0.16737334  0.35429018  0.34005886     0.20100
C2040       C  0.16372080  0.35285444  0.32955521     0.02200
C2041       C  0.16405952  0.37703696  0.32471059    -0.13800
C2042       C  0.16756359  0.40136965  0.33006736    -0.11500
C2043       C  0.17118391  0.40269877  0.34039168     0.01800
C2044       C  0.17135790  0.37920938  0.34534717    -0.23700
H2045       H  0.14588738  0.29539824  0.30133874     0.09800
H2046       H  0.15592264  0.34061477  0.30922434     0.13300
H2047       H  0.15231777  0.25938617  0.32935662     0.12100
H2048       H  0.16181136  0.28766444  0.34443507     0.13200
H2049       H  0.16948761  0.33165585  0.35322956     0.12300
H2050       H  0.16154029  0.37784641  0.31679674     0.09400
H2051       H  0.16779547  0.41948155  0.32605962     0.12600
H2052       H  0.17429396  0.38017336  0.35334281     0.14500
loop_ 
_geom_bond_atom_site_label_1 
_geom_bond_atom_site_label_2 
_geom_bond_distance 
_geom_bond_site_symmetry_2 
_ccdc_geom_bond_type 
O1            C4   1.265       .  A
O1           Cd6   2.418       .  S
C2           O11   1.264       .  A
C2            O7   1.265       .  A
C2         C1987   1.474       .  S
O3            C9   1.265       .  A
O3           Cd6   2.435       .  S
C4           O12   1.270       .  A
C4         C1977   1.474       .  S
C5           O10   1.265       .  A
C5            O8   1.264       .  A
C5         C2031   1.475       .  S
Cd6          O13   2.472       .  S
Cd6          O12   2.471       .  S
Cd6          O11   2.454       .  S
Cd6           O7   2.454       .  S
Cd6          O10   2.461       .  S
Cd6           O8   2.453       .  S
C9           O13   1.265       .  A
C9         C2021   1.475       .  S
O14          C17   1.269       .  A
O14         Cd19   2.480       .  S
C15          O24   1.266       .  A
C15          O20   1.267       .  A
C15        C1899   1.483       .  S
O16          C22   1.265       .  A
O16         Cd19   2.463       .  S
C17          O25   1.264       .  A
C17        C1921   1.477       .  S
C18          O23   1.264       .  A
C18          O21   1.265       .  A
C18        C2043   1.475       .  S
Cd19         O26   2.429       .  S
Cd19         O25   2.431       .  S
Cd19         O24   2.473       .  S
Cd19         O20   2.468       .  S
Cd19         O23   2.441       .  S
Cd19         O21   2.478       .  S
C22          O26   1.265       .  A
C22        C1943   1.472       .  S
O27          C30   1.263       .  A
O27         Cd32   2.428       .  S
C28          O37   1.267       .  A
C28          O33   1.267       .  A
C28        C1833   1.482       .  S
O29          C35   1.264       .  A
O29         Cd32   2.457       .  S
C30          O38   1.268       .  A
C30        C1955   1.479       .  S
C31          O36   1.263       .  A
C31          O34   1.265       .  A
C31        C1877   1.474       .  S
Cd32         O39   2.445       .  S
Cd32         O38   2.496       .  S
Cd32         O37   2.473       .  S
Cd32         O33   2.461       .  S
Cd32         O36   2.457       .  S
Cd32         O34   2.460       .  S
C35          O39   1.264       .  A
C35        C1867   1.472       .  S
O40          C43   1.268       .  A
O40         Cd45   2.449       .  S
C41          O50   1.264       .  A
C41          O46   1.267       .  A
C41        C2009   1.479       .  S
O42          C48   1.264       .  A
O42         Cd45   2.473       .  S
C43          O51   1.267       .  A
C43        C1801   1.478       .  S
C44          O49   1.266       .  A
C44          O47   1.262       .  A
C44        C1889   1.477       .  S
Cd45         O52   2.466       .  S
Cd45         O51   2.465       .  S
Cd45         O50   2.448   1_655  S
Cd45         O46   2.478   1_655  S
Cd45         O49   2.478   1_655  S
Cd45         O47   2.454   1_655  S
C48          O52   1.264       .  A
C48        C1811   1.478       .  S
O53          C56   1.268       .  A
O53         Cd58   2.463       .  S
C54          O63   1.267       .  A
C54          O59   1.265       .  A
C54        C1745   1.479       .  S
O55          C61   1.266       .  A
O55         Cd58   2.466       .  S
C56          O64   1.264       .  A
C56        C1855   1.474       .  S
C57          O62   1.263       .  A
C57          O60   1.265       .  A
C57        C1767   1.474       .  S
Cd58         O65   2.442       .  S
Cd58         O64   2.430       .  S
Cd58         O63   2.472       .  S
Cd58         O59   2.454       .  S
Cd58         O62   2.422       .  S
Cd58         O60   2.492       .  S
C61          O65   1.264       .  A
C61        C1933   1.475       .  S
O66          C69   1.268       .  A
O66         Cd71   2.476       .  S
C67          O76   1.263       .  A
C67          O72   1.268       .  A
C67        C1823   1.478       .  S
O68          C74   1.265       .  A
O68         Cd71   2.464   1_545  S
C69          O77   1.266       .  A
C69        C1723   1.477       .  S
C70          O75   1.264       .  A
C70          O73   1.265       .  A
C70        C1779   1.472       .  S
Cd71         O78   2.424   1_565  S
Cd71         O77   2.428       .  S
Cd71         O76   2.430       .  S
Cd71         O72   2.486       .  S
Cd71         O75   2.450       .  S
Cd71         O73   2.434       .  S
C74          O78   1.263       .  A
C74        C1999   1.470       .  S
O79          C82   1.266       .  A
O79         Cd84   2.442       .  S
C80          O89   1.264       .  A
C80          O85   1.268       .  A
C80        C1669   1.477   1_545  S
O81          C87   1.265       .  A
O81         Cd84   2.480       .  S
C82          O90   1.267       .  A
C82        C1965   1.476       .  S
C83          O88   1.264       .  A
C83          O86   1.264       .  A
C83        C1713   1.474       .  S
Cd84         O91   2.442       .  S
Cd84         O90   2.459       .  S
Cd84         O89   2.418       .  S
Cd84         O85   2.487       .  S
Cd84         O88   2.450       .  S
Cd84         O86   2.461       .  S
C87          O91   1.263       .  A
C87        C1679   1.474       .  S
O92          C95   1.269       .  A
O92         Cd97   2.456       .  S
C93         O102   1.263       .  A
C93          O98   1.267       .  A
C93        C1625   1.479       .  S
O94         C100   1.268       .  A
O94         Cd97   2.491       .  S
C95         O103   1.267       .  A
C95        C1591   1.472       .  S
C96         O101   1.271       .  A
C96          O99   1.264       .  A
C96        C1647   1.477       .  S
Cd97        O104   2.429       .  S
Cd97        O103   2.433       .  S
Cd97        O102   2.436       .  S
Cd97         O98   2.489       .  S
Cd97        O101   2.493       .  S
Cd97         O99   2.423       .  S
C100        O104   1.264       .  A
C100       C1701   1.479       .  S
O105        C108   1.267       .  A
O105       Cd110   2.479       .  S
C106        O115   1.263       .  A
C106        O111   1.268       .  A
C106       C1547   1.479       .  S
O107        C113   1.264       .  A
O107       Cd110   2.457       .  S
C108        O116   1.266       .  A
C108       C1789   1.478       .  S
C109        O114   1.264       .  A
C109        O112   1.265       .  A
C109       C1569   1.477       .  S
Cd110       O117   2.477       .  S
Cd110       O116   2.432       .  S
Cd110       O115   2.417       .  S
Cd110       O111   2.500       .  S
Cd110       O114   2.443       .  S
Cd110       O112   2.483       .  S
C113        O117   1.265       .  A
C113       C1657   1.478       .  S
O118        C121   1.265       .  A
O118       Cd123   2.468       .  S
C119        O128   1.266       .  A
C119        O124   1.268       .  A
C119       C1515   1.471       .  S
O120        C126   1.262       .  A
O120       Cd123   2.408       .  S
C121        O129   1.264       .  A
C121       C1525   1.479       .  S
C122        O127   1.267       .  A
C122        O125   1.263       .  A
C122       C1581   1.480       .  S
Cd123       O130   2.508       .  S
Cd123       O129   2.471       .  S
Cd123       O128   2.438       .  S
Cd123       O124   2.465       .  S
Cd123       O127   2.497       .  S
Cd123       O125   2.439       .  S
C126        O130   1.270       .  A
C126       C1613   1.474       .  S
O131        C134   1.266       .  A
O131       Cd136   2.478       .  S
C132        O141   1.269       .  A
C132        O137   1.268       .  A
C132       C1459   1.475       .  S
O133        C139   1.269       .  A
O133       Cd136   2.500       .  S
C134        O142   1.263       .  A
C134       C1635   1.478       .  S
C135        O140   1.269       .  A
C135        O138   1.263       .  A
C135       C1481   1.482       .  S
Cd136       O143   2.407       .  S
Cd136       O142   2.446       .  S
Cd136       O141   2.462       .  S
Cd136       O137   2.441       .  S
Cd136       O140   2.516       .  S
Cd136       O138   2.417       .  S
C139        O143   1.261       .  A
C139       C1537   1.476       .  S
O144        C147   1.266       .  A
O144       Cd149   2.446       .  S
C145        O154   1.264       .  A
C145        O150   1.268       .  A
C145       C1691   1.475       .  S
O146        C152   1.265       .  A
O146       Cd149   2.470       .  S
C147        O155   1.267       .  A
C147       C1735   1.476       .  S
C148        O153   1.265       .  A
C148        O151   1.264       .  A
C148       C1493   1.478       .  S
Cd149       O156   2.443       .  S
Cd149       O155   2.460       .  S
Cd149       O154   2.421       .  S
Cd149       O150   2.475       .  S
Cd149       O153   2.462       .  S
Cd149       O151   2.468       .  S
C152        O156   1.264       .  A
C152       C1559   1.477   1_545  S
O157        C160   1.268       .  A
O157       Cd162   2.472       .  S
C158        O167   1.268       .  A
C158        O163   1.265       .  A
C158       C1911   1.480       .  S
O159        C165   1.265       .  A
O159       Cd162   2.454       .  S
C160        O168   1.265       .  A
C160       C1393   1.476       .  S
C161        O166   1.266       .  A
C161        O164   1.264       .  A
C161       C1437   1.479   1_455  S
Cd162       O169   2.464       .  S
Cd162       O168   2.434       .  S
Cd162       O167   2.474       .  S
Cd162       O163   2.441       .  S
Cd162       O166   2.465       .  S
Cd162       O164   2.467       .  S
C165        O169   1.265       .  A
C165       C1427   1.476       .  S
O170        C173   1.268       .  A
O170       Cd175   2.502       .  S
C171        O180   1.265       .  A
C171        O176   1.268       .  A
C171       C1349   1.477       .  S
O172        C178   1.266       .  A
O172       Cd175   2.451       .  S
C173        O181   1.264       .  A
C173       C1339   1.481       .  S
C174        O179   1.265       .  A
C174        O177   1.265       .  A
C174       C1449   1.478       .  S
Cd175       O182   2.438       .  S
Cd175       O181   2.446       .  S
Cd175       O180   2.457       .  S
Cd175       O176   2.461       .  S
Cd175       O179   2.475       .  S
Cd175       O177   2.450       .  S
C178        O182   1.265       .  A
C178       C1383   1.473       .  S
O183        C186   1.267       .  A
O183       Cd188   2.470       .  S
C184        O193   1.269       .  A
C184        O189   1.265       .  A
C184       C1757   1.480       .  S
O185        C191   1.264       .  A
O185       Cd188   2.459       .  S
C186        O194   1.266       .  A
C186       C1415   1.479       .  S
C187        O192   1.264       .  A
C187        O190   1.266       .  A
C187       C1317   1.477       .  S
Cd188       O195   2.465       .  S
Cd188       O194   2.451       .  S
Cd188       O193   2.484       .  S
Cd188       O189   2.435       .  S
Cd188       O192   2.439       .  S
Cd188       O190   2.480       .  S
C191        O195   1.266       .  A
C191       C1295   1.474       .  S
O196        C199   1.267       .  A
O196       Cd201   2.454       .  S
C197        O206   1.264       .  A
C197        O202   1.269       .  A
C197       C1371   1.477       .  S
O198        C204   1.264       .  A
O198       Cd201   2.469       .  S
C199        O207   1.266       .  A
C199       C1239   1.479       .  S
C200        O205   1.266       .  A
C200        O203   1.264       .  A
C200       C1305   1.475       .  S
Cd201       O208   2.452       .  S
Cd201       O207   2.462       .  S
Cd201       O206   2.430       .  S
Cd201       O202   2.485       .  S
Cd201       O205   2.460       .  S
Cd201       O203   2.445       .  S
C204        O208   1.264       .  A
C204       C1261   1.476       .  S
O209        C212   1.267       .  A
O209       Cd214   2.474       .  S
C210        O219   1.264       .  A
C210        O215   1.268       .  A
C210       C1283   1.478       .  S
O211        C217   1.264       .  A
O211       Cd214   2.458       .  S
C212        O220   1.267       .  A
C212       C1845   1.483       .  S
C213        O218   1.265       .  A
C213        O216   1.264       .  A
C213       C1405   1.476       .  S
Cd214       O221   2.469       .  S
Cd214       O220   2.472       .  S
Cd214       O219   2.442       .  S
Cd214       O215   2.473       .  S
Cd214       O218   2.475       .  S
Cd214       O216   2.443       .  S
C217        O221   1.263       .  A
C217       C1217   1.476       .  S
O222        C225   1.269       .  A
O222       Cd227   2.485       .  S
C223        O232   1.262       .  A
C223        O228   1.268       .  A
C223       C1273   1.479       .  S
O224        C230   1.269       .  A
O224       Cd227   2.497       .  S
C225        O233   1.266       .  A
C225       C1195   1.483       .  S
C226        O231   1.266       .  A
C226        O229   1.265       .  A
C226       C1229   1.478       .  S
Cd227       O234   2.398       .  S
Cd227       O233   2.459       .  S
Cd227       O232   2.419       .  S
Cd227       O228   2.511       .  S
Cd227       O231   2.475       .  S
Cd227       O229   2.443       .  S
C230        O234   1.264       .  A
C230       C1361   1.472       .  S
O235        C238   1.268       .  A
O235       Cd240   2.477       .  S
C236        O245   1.267       .  A
C236        O241   1.264       .  A
C236       C1141   1.478       .  S
O237        C243   1.265       .  A
O237       Cd240   2.473       .  S
C238        O246   1.267       .  A
C238       C1119   1.485       .  S
C239        O244   1.266       .  A
C239        O242   1.262       .  A
C239       C1173   1.478       .  S
Cd240       O247   2.443       .  S
Cd240       O246   2.463       .  S
Cd240       O245   2.463       .  S
Cd240       O241   2.468       .  S
Cd240       O244   2.489       .  S
Cd240       O242   2.450       .  S
C243        O247   1.265       .  A
C243       C1151   1.477       .  S
O248        C251   1.269       .  A
O248       Cd253   2.453       .  S
C249        O258   1.263       .  A
C249        O254   1.268       .  A
C249       C1063   1.479       .  S
O250        C256   1.268       .  A
O250       Cd253   2.484       .  S
C251        O259   1.268       .  A
C251       C1471   1.476       .  S
C252        O257   1.271       .  A
C252        O255   1.263       .  A
C252       C1085   1.471       .  S
Cd253       O260   2.416       .  S
Cd253       O259   2.445       .  S
Cd253       O258   2.435       .  S
Cd253       O254   2.490       .  S
Cd253       O257   2.495       .  S
Cd253       O255   2.389       .  S
C256        O260   1.264       .  A
C256       C1185   1.476       .  S
O261        C264   1.269       .  A
O261       Cd266   2.474       .  S
C262        O271   1.264       .  A
C262        O267   1.269       .  A
C262       C1163   1.480       .  S
O263        C269   1.264       .  A
O263       Cd266   2.396       .  S
C264        O272   1.266       .  A
C264       C1009   1.480       .  S
C265        O270   1.268       .  A
C265        O268   1.265       .  A
C265       C1053   1.481       .  S
Cd266       O273   2.506       .  S
Cd266       O272   2.449       .  S
Cd266       O271   2.426       .  S
Cd266       O267   2.497       .  S
Cd266       O270   2.481       .  S
Cd266       O268   2.451       .  S
C269        O273   1.271       .  A
C269       C1019   1.477       .  S
O274        C277   1.268       .  A
O274       Cd279   2.472       .  S
C275        O284   1.266       .  A
C275        O280   1.269       .  A
C275       C1603   1.471       .  S
O276        C282   1.271       .  A
O276       Cd279   2.477       .  S
C277        O285   1.264       .  A
C277       C1097   1.476       .  S
C278        O283   1.268       .  A
C278        O281   1.264       .  A
C278       C1041   1.479       .  S
Cd279       O286   2.412       .  S
Cd279       O285   2.436       .  S
Cd279       O284   2.433       .  S
Cd279       O280   2.443       .  S
Cd279       O283   2.484       .  S
Cd279       O281   2.437       .  S
C282        O286   1.263       .  A
C282        C975   1.472       .  S
O287        C290   1.268       .  A
O287       Cd292   2.496       .  S
C288        O297   1.265       .  A
C288        O293   1.264       .  A
C288       C1031   1.480       .  S
O289        C295   1.266       .  A
O289       Cd292   2.456       .  S
C290        O298   1.264       .  A
C290        C943   1.482       .  S
C291        O296   1.263       .  A
C291        O294   1.264       .  A
C291        C965   1.483       .  S
Cd292       O299   2.454       .  S
Cd292       O298   2.448       .  S
Cd292       O297   2.488       .  S
Cd292       O293   2.454       .  S
Cd292       O296   2.481       .  S
Cd292       O294   2.486       .  S
C295        O299   1.266       .  A
C295       C1129   1.476       .  S
O300        C303   1.266       .  A
O300       Cd305   2.476       .  S
C301        O310   1.267       .  A
C301        O306   1.269       .  A
C301       C1503   1.477       .  S
O302        C308   1.262       .  A
O302       Cd305   2.450       .  S
C303        O311   1.265       .  A
C303        C987   1.478       .  S
C304        O309   1.267       .  A
C304        O307   1.263       .  A
C304        C953   1.485       .  S
Cd305       O312   2.505       .  S
Cd305       O311   2.451       .  S
Cd305       O310   2.442       .  S
Cd305       O306   2.461       .  S
Cd305       O309   2.513       .  S
Cd305       O307   2.462       .  S
C308        O312   1.267       .  A
C308       C1075   1.481       .  S
O313        C316   1.269       .  A
O313       Cd318   2.491       .  S
C314        O323   1.267       .  A
C314        O319   1.269       .  A
C314        C843   1.482       .  S
O315        C321   1.271   1_545  A
O315       Cd318   2.507       .  S
C316        O324   1.264       .  A
C316        C865   1.479       .  S
C317        O322   1.269       .  A
C317        O320   1.264       .  A
C317        C921   1.484       .  S
Cd318       O325   2.418       .  S
Cd318       O324   2.435       .  S
Cd318       O323   2.458       .  S
Cd318       O319   2.477       .  S
Cd318       O322   2.499       .  S
Cd318       O320   2.453       .  S
C321        O325   1.263   1_565  A
C321        C887   1.478       .  S
O326        C329   1.267       .  A
O326       Cd331   2.482       .  S
C327        O336   1.263       .  A
C327        O332   1.268       .  A
C327        C811   1.479       .  S
O328        C334   1.265       .  A
O328       Cd331   2.455       .  S
C329        O337   1.266       .  A
C329       C1251   1.481       .  S
C330        O335   1.264       .  A
C330        O333   1.264       .  A
C330        C909   1.481       .  S
Cd331       O338   2.449       .  S
Cd331       O337   2.453       .  S
Cd331       O336   2.447       .  S
Cd331       O332   2.482       .  S
Cd331       O335   2.473       .  S
Cd331       O333   2.475       .  S
C334        O338   1.266       .  A
C334        C821   1.476       .  S
O339        C342   1.267       .  A
O339       Cd344   2.451       .  S
C340        O349   1.264       .  A
C340        O345   1.265       .  A
C340        C833   1.475       .  S
O341        C347   1.269       .  A
O341       Cd344   2.509       .  S
C342        O350   1.268       .  A
C342       C1327   1.479       .  S
C343        O348   1.267       .  A
C343        O346   1.265       .  A
C343        C789   1.481       .  S
Cd344       O351   2.438       .  S
Cd344       O350   2.452       .  S
Cd344       O349   2.443       .  S
Cd344       O345   2.475       .  S
Cd344       O348   2.460       .  S
Cd344       O346   2.472       .  S
C347        O351   1.263       .  A
C347        C755   1.478       .  S
O352        C355   1.266       .  A
O352       Cd357   2.486       .  S
C353        O362   1.268       .  A
C353        O358   1.269       .  A
C353        C711   1.482       .  S
O354        C360   1.262       .  A
O354       Cd357   2.448       .  S
C355        O363   1.264       .  A
C355        C899   1.481       .  S
C356        O361   1.265       .  A
C356        O359   1.262       .  A
C356        C777   1.483       .  S
Cd357       O364   2.488       .  S
Cd357       O363   2.461       .  S
Cd357       O362   2.469       .  S
Cd357       O358   2.461       .  S
Cd357       O361   2.512       .  S
Cd357       O359   2.449       .  S
C360        O364   1.266       .  A
C360        C733   1.479       .  S
O365        C368   1.269       .  A
O365       Cd370   2.498       .  S
C366        O375   1.265       .  A
C366        O371   1.267       .  A
C366        C767   1.480       .  S
O367        C373   1.265       .  A
O367       Cd370   2.462       .  S
C368        O376   1.263       .  A
C368       C1207   1.479       .  S
C369        O374   1.263       .  A
C369        O372   1.264       .  A
C369        C689   1.481       .  S
Cd370       O377   2.466       .  S
Cd370       O376   2.443       .  S
Cd370       O375   2.451       .  S
Cd370       O371   2.484       .  S
Cd370       O374   2.470       .  S
Cd370       O372   2.490       .  S
C373        O377   1.265       .  A
C373        C799   1.477       .  S
O378        C381   1.270       .  A
O378       Cd383   2.471       .  S
C379        O388   1.263       .  A
C379        O384   1.268       .  A
C379        C745   1.480       .  S
O380        C386   1.269       .  A
O380       Cd383   2.508       .  S
C381        O389   1.267       .  A
C381        C667   1.479       .  S
C382        O387   1.262       .  A
C382        O385   1.272       .  A
C382        C877   1.469       .  S
Cd383       O390   2.430       .  S
Cd383       O389   2.445       .  S
Cd383       O388   2.436       .  S
Cd383       O384   2.495       .  S
Cd383       O387   2.380       .  S
Cd383       O385   2.508       .  S
C386        O390   1.265       .  A
C386        C701   1.482       .  S
O391        C394   1.267       .  A
O391       Cd396   2.483       .  S
C392        O401   1.268       .  A
C392        O397   1.266       .  A
C392       C1107   1.484       .  S
O393        C399   1.266       .  A
O393       Cd396   2.494       .  S
C394        O402   1.263       .  A
C394        C613   1.479       .  S
C395        O400   1.265       .  A
C395        O398   1.266       .  A
C395        C623   1.479       .  S
Cd396       O403   2.476       .  S
Cd396       O402   2.453       .  S
Cd396       O401   2.493       .  S
Cd396       O397   2.468       .  S
Cd396       O400   2.453       .  S
Cd396       O398   2.476       .  S
C399        O403   1.263       .  A
C399        C645   1.484       .  S
O404        C407   1.268   1_455  A
O404       Cd409   2.456       .  S
C405        O414   1.266       .  A
C405        O410   1.269       .  A
C405        C855   1.477       .  S
O406        C412   1.263       .  A
O406       Cd409   2.380       .  S
C407        O415   1.265   1_655  A
C407        C557   1.478       .  S
C408        O413   1.270       .  A
C408        O411   1.265       .  A
C408        C657   1.482       .  S
Cd409       O416   2.510       .  S
Cd409       O415   2.455       .  S
Cd409       O414   2.448       .  S
Cd409       O410   2.476       .  S
Cd409       O413   2.488       .  S
Cd409       O411   2.436       .  S
C412        O416   1.273       .  A
C412        C579   1.475   1_565  S
O417        C420   1.269       .  A
O417       Cd422   2.489       .  S
C418        O427   1.266       .  A
C418        O423   1.270       .  A
C418        C723   1.478       .  S
O419        C425   1.265       .  A
O419       Cd422   2.405       .  S
C420        O428   1.263       .  A
C420        C513   1.480       .  S
C421        O426   1.269       .  A
C421        O424   1.265       .  A
C421        C535   1.480       .  S
Cd422       O429   2.495       .  S
Cd422       O428   2.441       .  S
Cd422       O427   2.451       .  S
Cd422       O423   2.486       .  S
Cd422       O426   2.485       .  S
Cd422       O424   2.437       .  S
C425        O429   1.272       .  A
C425        C569   1.474       .  S
O430        C433   1.268       .  A
O430       Cd435   2.479       .  S
C431        O440   1.265       .  A
C431        O436   1.267       .  A
C431        C491   1.476       .  S
O432        C438   1.266       .  A
O432       Cd435   2.465       .  S
C433        O441   1.265       .  A
C433        C997   1.476       .  S
C434        O439   1.265       .  A
C434        O437   1.262       .  A
C434        C547   1.479       .  S
Cd435       O442   2.455       .  S
Cd435       O441   2.448       .  S
Cd435       O440   2.449       .  S
Cd435       O436   2.459       .  S
Cd435       O439   2.489       .  S
Cd435       O437   2.448       .  S
C438        O442   1.265       .  A
C438        C601   1.477       .  S
O443        C446   1.271       .  A
O443       Cd448   2.508       .  S
C444        O453   1.263       .  A
C444        O449   1.268       .  A
C444        C591   1.476       .  S
O445        C451   1.265       .  A
O445       Cd448   2.467       .  S
C446        O454   1.266       .  A
C446        C679   1.480       .  S
C447        O452   1.265       .  A
C447        O450   1.260       .  A
C447        C525   1.480       .  S
Cd448       O455   2.495       .  S
Cd448       O454   2.430       .  S
Cd448       O453   2.444       .  S
Cd448       O449   2.476       .  S
Cd448       O452   2.504   1_455  S
Cd448       O450   2.454   1_455  S
C451        O455   1.265       .  A
C451        C469   1.484       .  S
O456        C459   1.269       .  A
O456       Cd461   2.461       .  S
C457        O466   1.264       .  A
C457        O462   1.268       .  A
C457        C635   1.480       .  S
O458        C464   1.272       .  A
O458       Cd461   2.497       .  S
C459        O467   1.267       .  A
C459        C931   1.483       .  S
C460        O465   1.269       .  A
C460        O463   1.266       .  A
C460        C481   1.484       .  S
Cd461       O468   2.399       .  S
Cd461       O467   2.470       .  S
Cd461       O466   2.452       .  S
Cd461       O462   2.476       .  S
Cd461       O465   2.489       .  S
Cd461       O463   2.451       .  S
C464        O468   1.263       .  A
C464        C503   1.476       .  S
C469        C470   1.400       .  A
C469        C474   1.404       .  A
C470        C471   1.396       .  A
C470        H483   1.083       .  S
C471        C472   1.415       .  A
C471        H484   1.076       .  S
C472        C478   1.432       .  A
C472        C473   1.423       .  A
C473        C475   1.400       .  A
C473        C474   1.409       .  A
C474        H485   1.084       .  S
C475        C476   1.392       .  A
C475        H486   1.084       .  S
C476        C477   1.400       .  A
C476        H487   1.084       .  S
C477        C478   1.422       .  A
C477        C482   1.409       .  A
C478        C479   1.415       .  A
C479        C480   1.397       .  A
C479        H488   1.076       .  S
C480        C481   1.401       .  A
C480        H489   1.083       .  S
C481        C482   1.403       .  A
C482        H490   1.084       .  S
C491        C492   1.398       .  A
C491        C496   1.403       .  A
C492        C493   1.394       .  A
C492        H505   1.083       .  S
C493        C494   1.415       .  A
C493        H506   1.076       .  S
C494        C500   1.427       .  A
C494        C495   1.421       .  A
C495        C497   1.400       .  A
C495        C496   1.404       .  A
C496        H507   1.084       .  S
C497        C498   1.391       .  A
C497        H508   1.084       .  S
C498        C499   1.399       .  A
C498        H509   1.084       .  S
C499        C500   1.424       .  A
C499        C504   1.407       .  A
C500        C501   1.412       .  A
C501        C502   1.391       .  A
C501        H510   1.076       .  S
C502        C503   1.401       .  A
C502        H511   1.084       .  S
C503        C504   1.400       .  A
C504        H512   1.084       .  S
C513        C514   1.399       .  A
C513        C518   1.403       .  A
C514        C515   1.398   1_565  A
C514        H527   1.083       .  S
C515        C516   1.416       .  A
C515        H528   1.078       .  S
C516        C522   1.429       .  A
C516        C517   1.421       .  A
C517        C519   1.400       .  A
C517        C518   1.404   1_545  A
C518        H529   1.085       .  S
C519        C520   1.390       .  A
C519        H530   1.084       .  S
C520        C521   1.399       .  A
C520        H531   1.084       .  S
C521        C522   1.423       .  A
C521        C526   1.407       .  A
C522        C523   1.413       .  A
C523        C524   1.395       .  A
C523        H532   1.078       .  S
C524        C525   1.402       .  A
C524        H533   1.083       .  S
C525        C526   1.401       .  A
C526        H534   1.084       .  S
C535        C536   1.401       .  A
C535        C540   1.401       .  A
C536        C537   1.395       .  A
C536        H549   1.083       .  S
C537        C538   1.413       .  A
C537        H550   1.077       .  S
C538        C544   1.430       .  A
C538        C539   1.424       .  A
C539        C541   1.399       .  A
C539        C540   1.407       .  A
C540        H551   1.084       .  S
C541        C542   1.390       .  A
C541        H552   1.084       .  S
C542        C543   1.400       .  A
C542        H553   1.084       .  S
C543        C544   1.421       .  A
C543        C548   1.403       .  A
C544        C545   1.417       .  A
C545        C546   1.397       .  A
C545        H554   1.077       .  S
C546        C547   1.399       .  A
C546        H555   1.083       .  S
C547        C548   1.402       .  A
C548        H556   1.084       .  S
C557        C558   1.402       .  A
C557        C562   1.399       .  A
C558        C559   1.399       .  A
C558        H571   1.083       .  S
C559        C560   1.415       .  A
C559        H572   1.078       .  S
C560        C566   1.430       .  A
C560        C561   1.423       .  A
C561        C563   1.398       .  A
C561        C562   1.402       .  A
C562        H573   1.085       .  S
C563        C564   1.387       .  A
C563        H574   1.084       .  S
C564        C565   1.398       .  A
C564        H575   1.084       .  S
C565        C566   1.421       .  A
C565        C570   1.400       .  A
C566        C567   1.417       .  A
C567        C568   1.401       .  A
C567        H576   1.078       .  S
C568        C569   1.399       .  A
C568        H577   1.083       .  S
C569        C570   1.400       .  A
C570        H578   1.085       .  S
C579        C580   1.398       .  A
C579        C584   1.400       .  A
C580        C581   1.402       .  A
C580        H593   1.083       .  S
C581        C582   1.419       .  A
C581        H594   1.078       .  S
C582        C588   1.430       .  A
C582        C583   1.421       .  A
C583        C585   1.398       .  A
C583        C584   1.398       .  A
C584        H595   1.085       .  S
C585        C586   1.386       .  A
C585        H596   1.084       .  S
C586        C587   1.397       .  A
C586        H597   1.084       .  S
C587        C588   1.425       .  A
C587        C592   1.402       .  A
C588        C589   1.414       .  A
C589        C590   1.397       .  A
C589        H598   1.078       .  S
C590        C591   1.402       .  A
C590        H599   1.083       .  S
C591        C592   1.397       .  A
C592        H600   1.085       .  S
C601        C602   1.400       .  A
C601        C606   1.402       .  A
C602        C603   1.396       .  A
C602        H615   1.083       .  S
C603        C604   1.414       .  A
C603        H616   1.078       .  S
C604        C610   1.428       .  A
C604        C605   1.422       .  A
C605        C607   1.399       .  A
C605        C606   1.404       .  A
C606        H617   1.085       .  S
C607        C608   1.390       .  A
C607        H618   1.084       .  S
C608        C609   1.400       .  A
C608        H619   1.084       .  S
C609        C610   1.422       .  A
C609        C614   1.404       .  A
C610        C611   1.415       .  A
C611        C612   1.397       .  A
C611        H620   1.078       .  S
C612        C613   1.399       .  A
C612        H621   1.083       .  S
C613        C614   1.403       .  A
C614        H622   1.084       .  S
C623        C624   1.401       .  A
C623        C628   1.401       .  A
C624        C625   1.400       .  A
C624        H637   1.083       .  S
C625        C626   1.417       .  A
C625        H638   1.077       .  S
C626        C632   1.431       .  A
C626        C627   1.422       .  A
C627        C629   1.399       .  A
C627        C628   1.402       .  A
C628        H639   1.085       .  S
C629        C630   1.388       .  A
C629        H640   1.084       .  S
C630        C631   1.398       .  A
C630        H641   1.084       .  S
C631        C632   1.423       .  A
C631        C636   1.404       .  A
C632        C633   1.414       .  A
C633        C634   1.398       .  A
C633        H642   1.077       .  S
C634        C635   1.402       .  A
C634        H643   1.083       .  S
C635        C636   1.400       .  A
C636        H644   1.084       .  S
C645        C646   1.401       .  A
C645        C650   1.403       .  A
C646        C647   1.398       .  A
C646        H659   1.083       .  S
C647        C648   1.416       .  A
C647        H660   1.077       .  S
C648        C654   1.432       .  A
C648        C649   1.422       .  A
C649        C651   1.400       .  A
C649        C650   1.407       .  A
C650        H661   1.084       .  S
C651        C652   1.391       .  A
C651        H662   1.084       .  S
C652        C653   1.399       .  A
C652        H663   1.084       .  S
C653        C654   1.424       .  A
C653        C658   1.408       .  A
C654        C655   1.414       .  A
C655        C656   1.396       .  A
C655        H664   1.077       .  S
C656        C657   1.402       .  A
C656        H665   1.083       .  S
C657        C658   1.401       .  A
C658        H666   1.084       .  S
C667        C668   1.398       .  A
C667        C672   1.403       .  A
C668        C669   1.399       .  A
C668        H681   1.083       .  S
C669        C670   1.418       .  A
C669        H682   1.077       .  S
C670        C676   1.431       .  A
C670        C671   1.421       .  A
C671        C673   1.401   1_655  A
C671        C672   1.406       .  A
C672        H683   1.085       .  S
C673        C674   1.392       .  A
C673        H684   1.084       .  S
C674        C675   1.400       .  A
C674        H685   1.084       .  S
C675        C676   1.425   1_455  A
C675        C680   1.412       .  A
C676        C677   1.412       .  A
C677        C678   1.394       .  A
C677        H686   1.077       .  S
C678        C679   1.401   1_655  A
C678        H687   1.084       .  S
C679        C680   1.401       .  A
C680        H688   1.084       .  S
C689        C690   1.400       .  A
C689        C694   1.404       .  A
C690        C691   1.394       .  A
C690        H703   1.083       .  S
C691        C692   1.415       .  A
C691        H704   1.077       .  S
C692        C698   1.430       .  A
C692        C693   1.422       .  A
C693        C695   1.401       .  A
C693        C694   1.408       .  A
C694        H705   1.084       .  S
C695        C696   1.393       .  A
C695        H706   1.084       .  S
C696        C697   1.401       .  A
C696        H707   1.084       .  S
C697        C698   1.423       .  A
C697        C702   1.410       .  A
C698        C699   1.413       .  A
C699        C700   1.393       .  A
C699        H708   1.077       .  S
C700        C701   1.400       .  A
C700        H709   1.083       .  S
C701        C702   1.404       .  A
C702        H710   1.084       .  S
C711        C712   1.402       .  A
C711        C716   1.400       .  A
C712        C713   1.400       .  A
C712        H725   1.083       .  S
C713        C714   1.415       .  A
C713        H726   1.077       .  S
C714        C720   1.433       .  A
C714        C715   1.423       .  A
C715        C717   1.399       .  A
C715        C716   1.405       .  A
C716        H727   1.084       .  S
C717        C718   1.389       .  A
C717        H728   1.084       .  S
C718        C719   1.399       .  A
C718        H729   1.084       .  S
C719        C720   1.422       .  A
C719        C724   1.404       .  A
C720        C721   1.417       .  A
C721        C722   1.401       .  A
C721        H730   1.077       .  S
C722        C723   1.399       .  A
C722        H731   1.083       .  S
C723        C724   1.401       .  A
C724        H732   1.085       .  S
C733        C734   1.402       .  A
C733        C738   1.401       .  A
C734        C735   1.395       .  A
C734        H747   1.083       .  S
C735        C736   1.412       .  A
C735        H748   1.078       .  S
C736        C742   1.429       .  A
C736        C737   1.423       .  A
C737        C739   1.399       .  A
C737        C738   1.406       .  A
C738        H749   1.085       .  S
C739        C740   1.390   1_565  A
C739        H750   1.084       .  S
C740        C741   1.400       .  A
C740        H751   1.084       .  S
C741        C742   1.421   1_545  A
C741        C746   1.402       .  A
C742        C743   1.417   1_565  A
C743        C744   1.399       .  A
C743        H752   1.078   1_545  S
C744        C745   1.400       .  A
C744        H753   1.083       .  S
C745        C746   1.403       .  A
C746        H754   1.084       .  S
C755        C756   1.399       .  A
C755        C760   1.402       .  A
C756        C757   1.400       .  A
C756        H769   1.083       .  S
C757        C758   1.417       .  A
C757        H770   1.078       .  S
C758        C764   1.430       .  A
C758        C759   1.421       .  A
C759        C761   1.400       .  A
C759        C760   1.403       .  A
C760        H771   1.085       .  S
C761        C762   1.390       .  A
C761        H772   1.084       .  S
C762        C763   1.399       .  A
C762        H773   1.084       .  S
C763        C764   1.424       .  A
C763        C768   1.406       .  A
C764        C765   1.414       .  A
C765        C766   1.396       .  A
C765        H774   1.077       .  S
C766        C767   1.401       .  A
C766        H775   1.083       .  S
C767        C768   1.401       .  A
C768        H776   1.085       .  S
C777        C778   1.402       .  A
C777        C782   1.401       .  A
C778        C779   1.402       .  A
C778        H791   1.083       .  S
C779        C780   1.417       .  A
C779        H792   1.077       .  S
C780        C786   1.433       .  A
C780        C781   1.422       .  A
C781        C783   1.398       .  A
C781        C782   1.402       .  A
C782        H793   1.084       .  S
C783        C784   1.386       .  A
C783        H794   1.084       .  S
C784        C785   1.398       .  A
C784        H795   1.084       .  S
C785        C786   1.423       .  A
C785        C790   1.403       .  A
C786        C787   1.416       .  A
C787        C788   1.401       .  A
C787        H796   1.077       .  S
C788        C789   1.402       .  A
C788        H797   1.083       .  S
C789        C790   1.399       .  A
C790        H798   1.085       .  S
C799        C800   1.400       .  A
C799        C804   1.401       .  A
C800        C801   1.396       .  A
C800        H813   1.083       .  S
C801        C802   1.414       .  A
C801        H814   1.077       .  S
C802        C808   1.429       .  A
C802        C803   1.423       .  A
C803        C805   1.399       .  A
C803        C804   1.405       .  A
C804        H815   1.085       .  S
C805        C806   1.389       .  A
C805        H816   1.084       .  S
C806        C807   1.400       .  A
C806        H817   1.084       .  S
C807        C808   1.422       .  A
C807        C812   1.404       .  A
C808        C809   1.416       .  A
C809        C810   1.397       .  A
C809        H818   1.077       .  S
C810        C811   1.399       .  A
C810        H819   1.083       .  S
C811        C812   1.402       .  A
C812        H820   1.085       .  S
C821        C822   1.400       .  A
C821        C826   1.401       .  A
C822        C823   1.395       .  A
C822        H835   1.083       .  S
C823        C824   1.414       .  A
C823        H836   1.077       .  S
C824        C830   1.427       .  A
C824        C825   1.422       .  A
C825        C827   1.399       .  A
C825        C826   1.402       .  A
C826        H837   1.085       .  S
C827        C828   1.388       .  A
C827        H838   1.084       .  S
C828        C829   1.399       .  A
C828        H839   1.084       .  S
C829        C830   1.422       .  A
C829        C834   1.401       .  A
C830        C831   1.415       .  A
C831        C832   1.396       .  A
C831        H840   1.077       .  S
C832        C833   1.399       .  A
C832        H841   1.083       .  S
C833        C834   1.401       .  A
C834        H842   1.085       .  S
C843        C844   1.402   1_545  A
C843        C848   1.401       .  A
C844        C845   1.398       .  A
C844        H857   1.083       .  S
C845        C846   1.414       .  A
C845        H858   1.077       .  S
C846        C852   1.432       .  A
C846        C847   1.424   1_565  A
C847        C849   1.399       .  A
C847        C848   1.407       .  A
C848        H859   1.084       .  S
C849        C850   1.390       .  A
C849        H860   1.084       .  S
C850        C851   1.400   1_545  A
C850        H861   1.084       .  S
C851        C852   1.422       .  A
C851        C856   1.404       .  A
C852        C853   1.418       .  A
C853        C854   1.401       .  A
C853        H862   1.077       .  S
C854        C855   1.399       .  A
C854        H863   1.083       .  S
C855        C856   1.401       .  A
C856        H864   1.085       .  S
C865        C866   1.402       .  A
C865        C870   1.400       .  A
C866        C867   1.395       .  A
C866        H879   1.083       .  S
C867        C868   1.412       .  A
C867        H880   1.079       .  S
C868        C874   1.429       .  A
C868        C869   1.425       .  A
C869        C871   1.399       .  A
C869        C870   1.406       .  A
C870        H881   1.085       .  S
C871        C872   1.389       .  A
C871        H882   1.084       .  S
C872        C873   1.399       .  A
C872        H883   1.084       .  S
C873        C874   1.421       .  A
C873        C878   1.400       .  A
C874        C875   1.418       .  A
C875        C876   1.400       .  A
C875        H884   1.079       .  S
C876        C877   1.397   1_455  A
C876        H885   1.083   1_455  S
C877        C878   1.400   1_655  A
C878        H886   1.086       .  S
C887        C888   1.401       .  A
C887        C892   1.400       .  A
C888        C889   1.394       .  A
C888        H901   1.084       .  S
C889        C890   1.413   1_455  A
C889        H902   1.077       .  S
C890        C896   1.430       .  A
C890        C891   1.424   1_655  A
C891        C893   1.399   1_455  A
C891        C892   1.408       .  A
C892        H903   1.084       .  S
C893        C894   1.390       .  A
C893        H904   1.084   1_655  S
C894        C895   1.400       .  A
C894        H905   1.084       .  S
C895        C896   1.421       .  A
C895        C900   1.405       .  A
C896        C897   1.416       .  A
C897        C898   1.398       .  A
C897        H906   1.077       .  S
C898        C899   1.400       .  A
C898        H907   1.083       .  S
C899        C900   1.403       .  A
C900        H908   1.084       .  S
C909        C910   1.401       .  A
C909        C914   1.401       .  A
C910        C911   1.398       .  A
C910        H923   1.083       .  S
C911        C912   1.415       .  A
C911        H924   1.077       .  S
C912        C918   1.432       .  A
C912        C913   1.423       .  A
C913        C915   1.399       .  A
C913        C914   1.405       .  A
C914        H925   1.085       .  S
C915        C916   1.389       .  A
C915        H926   1.084       .  S
C916        C917   1.400       .  A
C916        H927   1.084       .  S
C917        C918   1.422       .  A
C917        C922   1.405       .  A
C918        C919   1.417       .  A
C919        C920   1.400       .  A
C919        H928   1.077       .  S
C920        C921   1.400       .  A
C920        H929   1.083       .  S
C921        C922   1.403       .  A
C922        H930   1.084       .  S
C931        C932   1.399       .  A
C931        C936   1.405       .  A
C932        C933   1.396       .  A
C932        H945   1.083       .  S
C933        C934   1.415       .  A
C933        H946   1.076       .  S
C934        C940   1.431       .  A
C934        C935   1.422       .  A
C935        C937   1.401       .  A
C935        C936   1.409       .  A
C936        H947   1.084       .  S
C937        C938   1.392       .  A
C937        H948   1.084       .  S
C938        C939   1.400       .  A
C938        H949   1.084       .  S
C939        C940   1.423       .  A
C939        C944   1.409       .  A
C940        C941   1.414       .  A
C941        C942   1.395       .  A
C941        H950   1.077       .  S
C942        C943   1.401       .  A
C942        H951   1.083       .  S
C943        C944   1.402       .  A
C944        H952   1.084       .  S
C953        C954   1.401       .  A
C953        C958   1.403       .  A
C954        C955   1.401   1_554  A
C954        H967   1.083       .  S
C955        C956   1.417   1_556  A
C955        H968   1.077       .  S
C956        C962   1.434   1_554  A
C956        C957   1.422       .  A
C957        C959   1.400       .  A
C957        C958   1.405       .  A
C958        H969   1.084       .  S
C959        C960   1.389       .  A
C959        H970   1.084       .  S
C960        C961   1.399   1_554  A
C960        H971   1.084       .  S
C961        C962   1.423       .  A
C961        C966   1.406       .  A
C962        C963   1.415       .  A
C963        C964   1.399       .  A
C963        H972   1.077       .  S
C964        C965   1.401       .  A
C964        H973   1.083       .  S
C965        C966   1.402       .  A
C966        H974   1.085       .  S
C975        C976   1.397       .  A
C975        C980   1.402       .  A
C976        C977   1.396       .  A
C976        H989   1.083       .  S
C977        C978   1.416       .  A
C977        H990   1.078       .  S
C978        C984   1.428       .  A
C978        C979   1.421       .  A
C979        C981   1.400       .  A
C979        C980   1.403       .  A
C980        H991   1.085       .  S
C981        C982   1.390       .  A
C981        H992   1.084       .  S
C982        C983   1.400       .  A
C982        H993   1.084       .  S
C983        C984   1.423       .  A
C983        C988   1.406       .  A
C984        C985   1.413       .  A
C985        C986   1.394       .  A
C985        H994   1.077       .  S
C986        C987   1.400       .  A
C986        H995   1.083       .  S
C987        C988   1.402       .  A
C988        H996   1.085       .  S
C997        C998   1.400       .  A
C997       C1002   1.400       .  A
C998        C999   1.396       .  A
C998       H1011   1.083       .  S
C999       C1000   1.414       .  A
C999       H1012   1.078       .  S
C1000      C1006   1.430       .  A
C1000      C1001   1.424       .  A
C1001      C1003   1.399       .  A
C1001      C1002   1.406       .  A
C1002      H1013   1.085       .  S
C1003      C1004   1.390       .  A
C1003      H1014   1.084       .  S
C1004      C1005   1.400       .  A
C1004      H1015   1.084       .  S
C1005      C1006   1.421       .  A
C1005      C1010   1.405       .  A
C1006      C1007   1.416       .  A
C1007      C1008   1.398       .  A
C1007      H1016   1.078       .  S
C1008      C1009   1.399       .  A
C1008      H1017   1.083       .  S
C1009      C1010   1.403       .  A
C1010      H1018   1.085       .  S
C1019      C1020   1.400       .  A
C1019      C1024   1.402       .  A
C1020      C1021   1.390       .  A
C1020      H1033   1.084       .  S
C1021      C1022   1.411       .  A
C1021      H1034   1.077       .  S
C1022      C1028   1.427       .  A
C1022      C1023   1.423       .  A
C1023      C1025   1.400       .  A
C1023      C1024   1.410       .  A
C1024      H1035   1.084       .  S
C1025      C1026   1.393       .  A
C1025      H1036   1.084       .  S
C1026      C1027   1.401       .  A
C1026      H1037   1.084       .  S
C1027      C1028   1.422       .  A
C1027      C1032   1.408       .  A
C1028      C1029   1.414       .  A
C1029      C1030   1.393       .  A
C1029      H1038   1.077       .  S
C1030      C1031   1.400       .  A
C1030      H1039   1.083       .  S
C1031      C1032   1.404       .  A
C1032      H1040   1.084       .  S
C1041      C1042   1.401       .  A
C1041      C1046   1.401   1_554  A
C1042      C1043   1.395   1_554  A
C1042      H1055   1.083       .  S
C1043      C1044   1.413       .  A
C1043      H1056   1.077   1_556  S
C1044      C1050   1.430       .  A
C1044      C1045   1.423       .  A
C1045      C1047   1.399       .  A
C1045      C1046   1.406       .  A
C1046      H1057   1.084       .  S
C1047      C1048   1.390       .  A
C1047      H1058   1.084       .  S
C1048      C1049   1.400       .  A
C1048      H1059   1.084       .  S
C1049      C1050   1.421       .  A
C1049      C1054   1.404   1_545  A
C1050      C1051   1.416   1_545  A
C1051      C1052   1.398       .  A
C1051      H1060   1.077       .  S
C1052      C1053   1.400       .  A
C1052      H1061   1.083       .  S
C1053      C1054   1.403       .  A
C1054      H1062   1.084       .  S
C1063      C1064   1.399       .  A
C1063      C1068   1.402       .  A
C1064      C1065   1.399       .  A
C1064      H1077   1.083       .  S
C1065      C1066   1.417       .  A
C1065      H1078   1.077       .  S
C1066      C1072   1.431       .  A
C1066      C1067   1.421       .  A
C1067      C1069   1.399       .  A
C1067      C1068   1.402       .  A
C1068      H1079   1.085       .  S
C1069      C1070   1.389       .  A
C1069      H1080   1.084       .  S
C1070      C1071   1.399       .  A
C1070      H1081   1.084       .  S
C1071      C1072   1.424       .  A
C1071      C1076   1.407       .  A
C1072      C1073   1.413       .  A
C1073      C1074   1.396       .  A
C1073      H1082   1.077       .  S
C1074      C1075   1.402       .  A
C1074      H1083   1.083       .  S
C1075      C1076   1.401       .  A
C1076      H1084   1.084       .  S
C1085      C1086   1.397       .  A
C1085      C1090   1.400       .  A
C1086      C1087   1.398       .  A
C1086      H1099   1.083       .  S
C1087      C1088   1.418       .  A
C1087      H1100   1.078       .  S
C1088      C1094   1.428       .  A
C1088      C1089   1.421       .  A
C1089      C1091   1.399       .  A
C1089      C1090   1.399       .  A
C1090      H1101   1.085       .  S
C1091      C1092   1.388       .  A
C1091      H1102   1.084       .  S
C1092      C1093   1.398       .  A
C1092      H1103   1.084       .  S
C1093      C1094   1.424       .  A
C1093      C1098   1.404       .  A
C1094      C1095   1.413       .  A
C1095      C1096   1.394       .  A
C1095      H1104   1.078       .  S
C1096      C1097   1.401       .  A
C1096      H1105   1.083       .  S
C1097      C1098   1.400       .  A
C1098      H1106   1.085       .  S
C1107      C1108   1.401       .  A
C1107      C1112   1.403       .  A
C1108      C1109   1.400       .  A
C1108      H1121   1.083       .  S
C1109      C1110   1.417       .  A
C1109      H1122   1.078       .  S
C1110      C1116   1.434       .  A
C1110      C1111   1.422       .  A
C1111      C1113   1.400       .  A
C1111      C1112   1.407       .  A
C1112      H1123   1.085       .  S
C1113      C1114   1.390       .  A
C1113      H1124   1.084       .  S
C1114      C1115   1.399       .  A
C1114      H1125   1.084       .  S
C1115      C1116   1.424       .  A
C1115      C1120   1.408       .  A
C1116      C1117   1.415       .  A
C1117      C1118   1.398       .  A
C1117      H1126   1.078       .  S
C1118      C1119   1.402       .  A
C1118      H1127   1.083       .  S
C1119      C1120   1.403       .  A
C1120      H1128   1.085       .  S
C1129      C1130   1.400       .  A
C1129      C1134   1.401       .  A
C1130      C1131   1.395       .  A
C1130      H1143   1.083       .  S
C1131      C1132   1.415       .  A
C1131      H1144   1.077       .  S
C1132      C1138   1.428       .  A
C1132      C1133   1.422       .  A
C1133      C1135   1.399       .  A
C1133      C1134   1.404       .  A
C1134      H1145   1.084       .  S
C1135      C1136   1.390       .  A
C1135      H1146   1.084       .  S
C1136      C1137   1.400       .  A
C1136      H1147   1.084       .  S
C1137      C1138   1.423       .  A
C1137      C1142   1.406       .  A
C1138      C1139   1.414       .  A
C1139      C1140   1.394       .  A
C1139      H1148   1.076       .  S
C1140      C1141   1.398       .  A
C1140      H1149   1.083       .  S
C1141      C1142   1.403       .  A
C1142      H1150   1.084       .  S
C1151      C1152   1.402       .  A
C1151      C1156   1.399       .  A
C1152      C1153   1.399       .  A
C1152      H1165   1.083       .  S
C1153      C1154   1.415       .  A
C1153      H1166   1.078       .  S
C1154      C1160   1.431       .  A
C1154      C1155   1.423       .  A
C1155      C1157   1.398       .  A
C1155      C1156   1.401       .  A
C1156      H1167   1.085       .  S
C1157      C1158   1.386       .  A
C1157      H1168   1.084       .  S
C1158      C1159   1.398       .  A
C1158      H1169   1.084       .  S
C1159      C1160   1.422       .  A
C1159      C1164   1.400       .  A
C1160      C1161   1.417       .  A
C1161      C1162   1.401       .  A
C1161      H1170   1.078       .  S
C1162      C1163   1.401       .  A
C1162      H1171   1.083       .  S
C1163      C1164   1.401       .  A
C1164      H1172   1.085       .  S
C1173      C1174   1.399       .  A
C1173      C1178   1.402       .  A
C1174      C1175   1.396   1_456  A
C1174      H1187   1.083       .  S
C1175      C1176   1.416   1_554  A
C1175      H1188   1.078       .  S
C1176      C1182   1.428   1_556  A
C1176      C1177   1.421       .  A
C1177      C1179   1.400       .  A
C1177      C1178   1.403   1_655  A
C1178      H1189   1.085       .  S
C1179      C1180   1.390       .  A
C1179      H1190   1.084       .  S
C1180      C1181   1.399   1_556  A
C1180      H1191   1.084       .  S
C1181      C1182   1.424       .  A
C1181      C1186   1.406       .  A
C1182      C1183   1.412       .  A
C1183      C1184   1.392       .  A
C1183      H1192   1.078       .  S
C1184      C1185   1.401       .  A
C1184      H1193   1.083       .  S
C1185      C1186   1.401       .  A
C1186      H1194   1.085       .  S
C1195      C1196   1.400       .  A
C1195      C1200   1.404       .  A
C1196      C1197   1.399       .  A
C1196      H1209   1.083       .  S
C1197      C1198   1.417       .  A
C1197      H1210   1.077       .  S
C1198      C1204   1.432       .  A
C1198      C1199   1.421       .  A
C1199      C1201   1.401       .  A
C1199      C1200   1.406       .  A
C1200      H1211   1.084       .  S
C1201      C1202   1.391       .  A
C1201      H1212   1.084       .  S
C1202      C1203   1.399       .  A
C1202      H1213   1.084       .  S
C1203      C1204   1.424       .  A
C1203      C1208   1.408       .  A
C1204      C1205   1.413       .  A
C1205      C1206   1.396       .  A
C1205      H1214   1.077       .  S
C1206      C1207   1.401       .  A
C1206      H1215   1.084       .  S
C1207      C1208   1.400       .  A
C1208      H1216   1.084       .  S
C1217      C1218   1.401       .  A
C1217      C1222   1.399       .  A
C1218      C1219   1.397       .  A
C1218      H1231   1.083       .  S
C1219      C1220   1.415       .  A
C1219      H1232   1.078       .  S
C1220      C1226   1.430   1_565  A
C1220      C1221   1.423       .  A
C1221      C1223   1.398       .  A
C1221      C1222   1.402       .  A
C1222      H1233   1.085       .  S
C1223      C1224   1.387       .  A
C1223      H1234   1.084       .  S
C1224      C1225   1.399   1_565  A
C1224      H1235   1.084       .  S
C1225      C1226   1.422       .  A
C1225      C1230   1.402       .  A
C1226      C1227   1.416       .  A
C1227      C1228   1.398       .  A
C1227      H1236   1.078       .  S
C1228      C1229   1.400       .  A
C1228      H1237   1.083       .  S
C1229      C1230   1.400       .  A
C1230      H1238   1.085       .  S
C1239      C1240   1.399       .  A
C1239      C1244   1.403       .  A
C1240      C1241   1.394       .  A
C1240      H1253   1.083       .  S
C1241      C1242   1.414       .  A
C1241      H1254   1.078       .  S
C1242      C1248   1.429       .  A
C1242      C1243   1.423       .  A
C1243      C1245   1.400       .  A
C1243      C1244   1.407       .  A
C1244      H1255   1.085       .  S
C1245      C1246   1.392       .  A
C1245      H1256   1.084       .  S
C1246      C1247   1.400       .  A
C1246      H1257   1.084       .  S
C1247      C1248   1.422       .  A
C1247      C1252   1.408       .  A
C1248      C1249   1.414       .  A
C1249      C1250   1.394       .  A
C1249      H1258   1.078       .  S
C1250      C1251   1.400       .  A
C1250      H1259   1.083       .  S
C1251      C1252   1.403       .  A
C1252      H1260   1.085       .  S
C1261      C1262   1.401       .  A
C1261      C1266   1.400       .  A
C1262      C1263   1.397       .  A
C1262      H1275   1.083       .  S
C1263      C1264   1.414       .  A
C1263      H1276   1.078       .  S
C1264      C1270   1.430       .  A
C1264      C1265   1.423       .  A
C1265      C1267   1.398       .  A
C1265      C1266   1.402       .  A
C1266      H1277   1.085       .  S
C1267      C1268   1.387       .  A
C1267      H1278   1.084       .  S
C1268      C1269   1.399       .  A
C1268      H1279   1.084       .  S
C1269      C1270   1.421       .  A
C1269      C1274   1.400       .  A
C1270      C1271   1.417       .  A
C1271      C1272   1.400       .  A
C1271      H1280   1.078       .  S
C1272      C1273   1.400       .  A
C1272      H1281   1.083       .  S
C1273      C1274   1.401       .  A
C1274      H1282   1.085       .  S
C1283      C1284   1.400       .  A
C1283      C1288   1.402       .  A
C1284      C1285   1.397       .  A
C1284      H1297   1.083       .  S
C1285      C1286   1.415       .  A
C1285      H1298   1.078       .  S
C1286      C1292   1.428       .  A
C1286      C1287   1.422       .  A
C1287      C1289   1.400       .  A
C1287      C1288   1.403       .  A
C1288      H1299   1.085       .  S
C1289      C1290   1.390       .  A
C1289      H1300   1.084       .  S
C1290      C1291   1.399       .  A
C1290      H1301   1.084       .  S
C1291      C1292   1.422       .  A
C1291      C1296   1.405       .  A
C1292      C1293   1.413       .  A
C1293      C1294   1.395       .  A
C1293      H1302   1.078       .  S
C1294      C1295   1.400       .  A
C1294      H1303   1.083       .  S
C1295      C1296   1.400       .  A
C1296      H1304   1.085       .  S
C1305      C1306   1.400       .  A
C1305      C1310   1.400       .  A
C1306      C1307   1.396       .  A
C1306      H1319   1.083       .  S
C1307      C1308   1.414       .  A
C1307      H1320   1.078       .  S
C1308      C1314   1.428       .  A
C1308      C1309   1.422       .  A
C1309      C1311   1.398       .  A
C1309      C1310   1.402       .  A
C1310      H1321   1.085       .  S
C1311      C1312   1.388       .  A
C1311      H1322   1.084       .  S
C1312      C1313   1.399       .  A
C1312      H1323   1.084       .  S
C1313      C1314   1.421       .  A
C1313      C1318   1.401       .  A
C1314      C1315   1.416       .  A
C1315      C1316   1.398       .  A
C1315      H1324   1.078       .  S
C1316      C1317   1.400       .  A
C1316      H1325   1.083       .  S
C1317      C1318   1.401       .  A
C1318      H1326   1.084       .  S
C1327      C1328   1.400       .  A
C1327      C1332   1.402       .  A
C1328      C1329   1.397       .  A
C1328      H1341   1.083       .  S
C1329      C1330   1.415       .  A
C1329      H1342   1.077       .  S
C1330      C1336   1.431       .  A
C1330      C1331   1.423       .  A
C1331      C1333   1.399       .  A
C1331      C1332   1.405       .  A
C1332      H1343   1.085       .  S
C1333      C1334   1.389       .  A
C1333      H1344   1.084       .  S
C1334      C1335   1.400       .  A
C1334      H1345   1.084       .  S
C1335      C1336   1.422       .  A
C1335      C1340   1.404       .  A
C1336      C1337   1.417       .  A
C1337      C1338   1.400       .  A
C1337      H1346   1.077       .  S
C1338      C1339   1.400       .  A
C1338      H1347   1.083       .  S
C1339      C1340   1.403       .  A
C1340      H1348   1.085       .  S
C1349      C1350   1.402       .  A
C1349      C1354   1.398       .  A
C1350      C1351   1.398       .  A
C1350      H1363   1.083       .  S
C1351      C1352   1.414       .  A
C1351      H1364   1.078       .  S
C1352      C1358   1.430       .  A
C1352      C1353   1.424       .  A
C1353      C1355   1.397       .  A
C1353      C1354   1.401       .  A
C1354      H1365   1.085       .  S
C1355      C1356   1.385       .  A
C1355      H1366   1.084       .  S
C1356      C1357   1.398       .  A
C1356      H1367   1.084       .  S
C1357      C1358   1.422       .  A
C1357      C1362   1.397       .  A
C1358      C1359   1.418       .  A
C1359      C1360   1.401       .  A
C1359      H1368   1.078       .  S
C1360      C1361   1.399       .  A
C1360      H1369   1.083       .  S
C1361      C1362   1.398       .  A
C1362      H1370   1.085       .  S
C1371      C1372   1.399       .  A
C1371      C1376   1.402       .  A
C1372      C1373   1.398       .  A
C1372      H1385   1.083       .  S
C1373      C1374   1.416       .  A
C1373      H1386   1.078       .  S
C1374      C1380   1.426       .  A
C1374      C1375   1.421       .  A
C1375      C1377   1.400       .  A
C1375      C1376   1.402       .  A
C1376      H1387   1.085       .  S
C1377      C1378   1.390       .  A
C1377      H1388   1.084       .  S
C1378      C1379   1.399       .  A
C1378      H1389   1.084       .  S
C1379      C1380   1.421       .  A
C1379      C1384   1.403       .  A
C1380      C1381   1.412       .  A
C1381      C1382   1.395       .  A
C1381      H1390   1.079       .  S
C1382      C1383   1.401       .  A
C1382      H1391   1.083       .  S
C1383      C1384   1.401       .  A
C1384      H1392   1.085       .  S
C1393      C1394   1.401       .  A
C1393      C1398   1.400       .  A
C1394      C1395   1.394       .  A
C1394      H1407   1.083       .  S
C1395      C1396   1.413       .  A
C1395      H1408   1.077       .  S
C1396      C1402   1.428       .  A
C1396      C1397   1.423       .  A
C1397      C1399   1.398       .  A
C1397      C1398   1.404       .  A
C1398      H1409   1.084       .  S
C1399      C1400   1.388       .  A
C1399      H1410   1.084       .  S
C1400      C1401   1.399       .  A
C1400      H1411   1.084       .  S
C1401      C1402   1.421       .  A
C1401      C1406   1.401       .  A
C1402      C1403   1.416       .  A
C1403      C1404   1.397       .  A
C1403      H1412   1.077       .  S
C1404      C1405   1.400       .  A
C1404      H1413   1.083       .  S
C1405      C1406   1.400       .  A
C1406      H1414   1.084       .  S
C1415      C1416   1.400       .  A
C1415      C1420   1.401       .  A
C1416      C1417   1.398       .  A
C1416      H1429   1.083       .  S
C1417      C1418   1.415       .  A
C1417      H1430   1.078       .  S
C1418      C1424   1.429       .  A
C1418      C1419   1.422       .  A
C1419      C1421   1.399       .  A
C1419      C1420   1.403       .  A
C1420      H1431   1.085       .  S
C1421      C1422   1.389       .  A
C1421      H1432   1.084       .  S
C1422      C1423   1.398       .  A
C1422      H1433   1.084       .  S
C1423      C1424   1.422       .  A
C1423      C1428   1.404       .  A
C1424      C1425   1.414       .  A
C1425      C1426   1.397       .  A
C1425      H1434   1.078       .  S
C1426      C1427   1.401       .  A
C1426      H1435   1.083       .  S
C1427      C1428   1.400       .  A
C1428      H1436   1.085       .  S
C1437      C1438   1.400       .  A
C1437      C1442   1.403       .  A
C1438      C1439   1.395       .  A
C1438      H1451   1.083       .  S
C1439      C1440   1.414       .  A
C1439      H1452   1.077       .  S
C1440      C1446   1.428       .  A
C1440      C1441   1.421       .  A
C1441      C1443   1.400       .  A
C1441      C1442   1.406       .  A
C1442      H1453   1.084       .  S
C1443      C1444   1.392       .  A
C1443      H1454   1.084       .  S
C1444      C1445   1.400       .  A
C1444      H1455   1.084       .  S
C1445      C1446   1.422       .  A
C1445      C1450   1.407       .  A
C1446      C1447   1.413       .  A
C1447      C1448   1.394       .  A
C1447      H1456   1.077       .  S
C1448      C1449   1.400       .  A
C1448      H1457   1.083       .  S
C1449      C1450   1.402       .  A
C1450      H1458   1.084       .  S
C1459      C1460   1.399       .  A
C1459      C1464   1.401       .  A
C1460      C1461   1.396       .  A
C1460      H1473   1.083       .  S
C1461      C1462   1.415       .  A
C1461      H1474   1.078       .  S
C1462      C1468   1.429       .  A
C1462      C1463   1.423       .  A
C1463      C1465   1.400       .  A
C1463      C1464   1.405       .  A
C1464      H1475   1.085       .  S
C1465      C1466   1.390       .  A
C1465      H1476   1.084       .  S
C1466      C1467   1.399       .  A
C1466      H1477   1.084       .  S
C1467      C1468   1.422       .  A
C1467      C1472   1.405       .  A
C1468      C1469   1.414       .  A
C1469      C1470   1.396       .  A
C1469      H1478   1.078       .  S
C1470      C1471   1.401       .  A
C1470      H1479   1.083       .  S
C1471      C1472   1.400       .  A
C1472      H1480   1.085       .  S
C1481      C1482   1.401       .  A
C1481      C1486   1.404       .  A
C1482      C1483   1.391       .  A
C1482      H1495   1.083       .  S
C1483      C1484   1.412       .  A
C1483      H1496   1.075       .  S
C1484      C1490   1.428       .  A
C1484      C1485   1.423       .  A
C1485      C1487   1.401       .  A
C1485      C1486   1.411       .  A
C1486      H1497   1.084       .  S
C1487      C1488   1.393       .  A
C1487      H1498   1.084       .  S
C1488      C1489   1.401       .  A
C1488      H1499   1.084       .  S
C1489      C1490   1.421       .  A
C1489      C1494   1.407       .  A
C1490      C1491   1.415       .  A
C1491      C1492   1.393       .  A
C1491      H1500   1.075       .  S
C1492      C1493   1.398       .  A
C1492      H1501   1.084       .  S
C1493      C1494   1.404       .  A
C1494      H1502   1.084       .  S
C1503      C1504   1.401       .  A
C1503      C1508   1.400       .  A
C1504      C1505   1.396       .  A
C1504      H1517   1.083       .  S
C1505      C1506   1.413       .  A
C1505      H1518   1.077       .  S
C1506      C1512   1.429       .  A
C1506      C1507   1.423       .  A
C1507      C1509   1.399       .  A
C1507      C1508   1.405       .  A
C1508      H1519   1.084       .  S
C1509      C1510   1.389       .  A
C1509      H1520   1.084       .  S
C1510      C1511   1.400       .  A
C1510      H1521   1.084       .  S
C1511      C1512   1.422       .  A
C1511      C1516   1.402       .  A
C1512      C1513   1.417       .  A
C1513      C1514   1.398       .  A
C1513      H1522   1.077       .  S
C1514      C1515   1.397       .  A
C1514      H1523   1.083       .  S
C1515      C1516   1.400       .  A
C1516      H1524   1.085       .  S
C1525      C1526   1.401       .  A
C1525      C1530   1.400       .  A
C1526      C1527   1.398       .  A
C1526      H1539   1.083       .  S
C1527      C1528   1.415       .  A
C1527      H1540   1.078       .  S
C1528      C1534   1.430       .  A
C1528      C1529   1.423       .  A
C1529      C1531   1.398       .  A
C1529      C1530   1.403       .  A
C1530      H1541   1.085       .  S
C1531      C1532   1.387       .  A
C1531      H1542   1.084       .  S
C1532      C1533   1.399       .  A
C1532      H1543   1.084       .  S
C1533      C1534   1.421       .  A
C1533      C1538   1.400       .  A
C1534      C1535   1.417       .  A
C1535      C1536   1.399       .  A
C1535      H1544   1.078       .  S
C1536      C1537   1.399       .  A
C1536      H1545   1.083       .  S
C1537      C1538   1.401       .  A
C1538      H1546   1.085       .  S
C1547      C1548   1.400       .  A
C1547      C1552   1.401       .  A
C1548      C1549   1.400       .  A
C1548      H1561   1.083       .  S
C1549      C1550   1.417       .  A
C1549      H1562   1.077       .  S
C1550      C1556   1.430       .  A
C1550      C1551   1.421       .  A
C1551      C1553   1.399       .  A
C1551      C1552   1.399       .  A
C1552      H1563   1.085       .  S
C1553      C1554   1.387       .  A
C1553      H1564   1.084       .  S
C1554      C1555   1.398       .  A
C1554      H1565   1.084       .  S
C1555      C1556   1.423       .  A
C1555      C1560   1.402       .  A
C1556      C1557   1.415       .  A
C1557      C1558   1.398       .  A
C1557      H1566   1.077       .  S
C1558      C1559   1.401       .  A
C1558      H1567   1.083       .  S
C1559      C1560   1.401       .  A
C1560      H1568   1.085       .  S
C1569      C1570   1.401       .  A
C1569      C1574   1.399       .  A
C1570      C1571   1.399       .  A
C1570      H1583   1.083       .  S
C1571      C1572   1.416       .  A
C1571      H1584   1.077       .  S
C1572      C1578   1.431       .  A
C1572      C1573   1.422       .  A
C1573      C1575   1.398       .  A
C1573      C1574   1.400       .  A
C1574      H1585   1.085       .  S
C1575      C1576   1.386       .  A
C1575      H1586   1.084       .  S
C1576      C1577   1.398       .  A
C1576      H1587   1.084       .  S
C1577      C1578   1.422       .  A
C1577      C1582   1.401       .  A
C1578      C1579   1.416       .  A
C1579      C1580   1.400       .  A
C1579      H1588   1.077       .  S
C1580      C1581   1.400       .  A
C1580      H1589   1.083       .  S
C1581      C1582   1.401       .  A
C1582      H1590   1.085       .  S
C1591      C1592   1.399       .  A
C1591      C1596   1.399       .  A
C1592      C1593   1.398       .  A
C1592      H1605   1.083       .  S
C1593      C1594   1.417       .  A
C1593      H1606   1.077       .  S
C1594      C1600   1.428       .  A
C1594      C1595   1.422       .  A
C1595      C1597   1.399       .  A
C1595      C1596   1.400       .  A
C1596      H1607   1.085       .  S
C1597      C1598   1.387       .  A
C1597      H1608   1.084       .  S
C1598      C1599   1.397       .  A
C1598      H1609   1.084       .  S
C1599      C1600   1.423       .  A
C1599      C1604   1.401       .  A
C1600      C1601   1.414       .  A
C1601      C1602   1.396       .  A
C1601      H1610   1.077       .  S
C1602      C1603   1.401       .  A
C1602      H1611   1.084       .  S
C1603      C1604   1.397       .  A
C1604      H1612   1.085       .  S
C1613      C1614   1.400       .  A
C1613      C1618   1.399       .  A
C1614      C1615   1.394       .  A
C1614      H1627   1.084       .  S
C1615      C1616   1.413       .  A
C1615      H1628   1.077       .  S
C1616      C1622   1.429       .  A
C1616      C1617   1.425       .  A
C1617      C1619   1.398       .  A
C1617      C1618   1.407       .  A
C1618      H1629   1.085       .  S
C1619      C1620   1.389       .  A
C1619      H1630   1.084       .  S
C1620      C1621   1.400       .  A
C1620      H1631   1.084       .  S
C1621      C1622   1.421       .  A
C1621      C1626   1.402       .  A
C1622      C1623   1.417       .  A
C1623      C1624   1.398       .  A
C1623      H1632   1.077       .  S
C1624      C1625   1.399       .  A
C1624      H1633   1.083       .  S
C1625      C1626   1.402       .  A
C1626      H1634   1.084       .  S
C1635      C1636   1.401       .  A
C1635      C1640   1.401       .  A
C1636      C1637   1.395       .  A
C1636      H1649   1.083       .  S
C1637      C1638   1.413       .  A
C1637      H1650   1.078       .  S
C1638      C1644   1.429       .  A
C1638      C1639   1.424       .  A
C1639      C1641   1.399       .  A
C1639      C1640   1.405       .  A
C1640      H1651   1.085       .  S
C1641      C1642   1.389       .  A
C1641      H1652   1.084       .  S
C1642      C1643   1.400       .  A
C1642      H1653   1.084       .  S
C1643      C1644   1.421       .  A
C1643      C1648   1.403       .  A
C1644      C1645   1.417       .  A
C1645      C1646   1.398       .  A
C1645      H1654   1.078       .  S
C1646      C1647   1.398       .  A
C1646      H1655   1.083       .  S
C1647      C1648   1.402       .  A
C1648      H1656   1.085       .  S
C1657      C1658   1.401       .  A
C1657      C1662   1.400       .  A
C1658      C1659   1.398       .  A
C1658      H1671   1.083       .  S
C1659      C1660   1.414   1_655  A
C1659      H1672   1.078   1_655  S
C1660      C1666   1.429       .  A
C1660      C1661   1.423   1_455  A
C1661      C1663   1.398       .  A
C1661      C1662   1.402       .  A
C1662      H1673   1.085       .  S
C1663      C1664   1.387   1_655  A
C1663      H1674   1.084       .  S
C1664      C1665   1.399       .  A
C1664      H1675   1.084       .  S
C1665      C1666   1.421       .  A
C1665      C1670   1.399       .  A
C1666      C1667   1.417       .  A
C1667      C1668   1.399       .  A
C1667      H1676   1.077       .  S
C1668      C1669   1.400       .  A
C1668      H1677   1.083       .  S
C1669      C1670   1.400       .  A
C1670      H1678   1.084       .  S
C1679      C1680   1.399       .  A
C1679      C1684   1.401       .  A
C1680      C1681   1.393       .  A
C1680      H1693   1.084       .  S
C1681      C1682   1.414       .  A
C1681      H1694   1.076       .  S
C1682      C1688   1.427   1_455  A
C1682      C1683   1.422       .  A
C1683      C1685   1.400       .  A
C1683      C1684   1.405       .  A
C1684      H1695   1.084       .  S
C1685      C1686   1.390       .  A
C1685      H1696   1.084       .  S
C1686      C1687   1.399   1_455  A
C1686      H1697   1.084       .  S
C1687      C1688   1.423       .  A
C1687      C1692   1.405       .  A
C1688      C1689   1.413       .  A
C1689      C1690   1.392       .  A
C1689      H1698   1.076       .  S
C1690      C1691   1.400       .  A
C1690      H1699   1.084       .  S
C1691      C1692   1.400       .  A
C1692      H1700   1.084       .  S
C1701      C1702   1.400       .  A
C1701      C1706   1.401       .  A
C1702      C1703   1.399       .  A
C1702      H1715   1.083       .  S
C1703      C1704   1.416       .  A
C1703      H1716   1.077       .  S
C1704      C1710   1.429       .  A
C1704      C1705   1.422       .  A
C1705      C1707   1.399       .  A
C1705      C1706   1.401       .  A
C1706      H1717   1.085       .  S
C1707      C1708   1.387       .  A
C1707      H1718   1.084       .  S
C1708      C1709   1.398       .  A
C1708      H1719   1.084       .  S
C1709      C1710   1.423       .  A
C1709      C1714   1.402       .  A
C1710      C1711   1.415       .  A
C1711      C1712   1.397       .  A
C1711      H1720   1.077       .  S
C1712      C1713   1.399       .  A
C1712      H1721   1.083       .  S
C1713      C1714   1.399       .  A
C1714      H1722   1.085       .  S
C1723      C1724   1.400       .  A
C1723      C1728   1.403   1_565  A
C1724      C1725   1.392   1_565  A
C1724      H1737   1.083       .  S
C1725      C1726   1.412       .  A
C1725      H1738   1.077       .  S
C1726      C1732   1.426       .  A
C1726      C1727   1.422       .  A
C1727      C1729   1.400       .  A
C1727      C1728   1.407       .  A
C1728      H1739   1.084       .  S
C1729      C1730   1.392       .  A
C1729      H1740   1.084       .  S
C1730      C1731   1.400       .  A
C1730      H1741   1.084       .  S
C1731      C1732   1.421       .  A
C1731      C1736   1.405       .  A
C1732      C1733   1.414       .  A
C1733      C1734   1.393       .  A
C1733      H1742   1.077       .  S
C1734      C1735   1.400       .  A
C1734      H1743   1.083       .  S
C1735      C1736   1.402       .  A
C1736      H1744   1.084       .  S
C1745      C1746   1.401       .  A
C1745      C1750   1.401       .  A
C1746      C1747   1.396       .  A
C1746      H1759   1.083       .  S
C1747      C1748   1.415       .  A
C1747      H1760   1.079       .  S
C1748      C1754   1.430       .  A
C1748      C1749   1.422       .  A
C1749      C1751   1.400       .  A
C1749      C1750   1.405       .  A
C1750      H1761   1.085       .  S
C1751      C1752   1.390       .  A
C1751      H1762   1.084       .  S
C1752      C1753   1.399       .  A
C1752      H1763   1.084       .  S
C1753      C1754   1.423       .  A
C1753      C1758   1.407       .  A
C1754      C1755   1.413       .  A
C1755      C1756   1.395       .  A
C1755      H1764   1.079       .  S
C1756      C1757   1.402       .  A
C1756      H1765   1.083       .  S
C1757      C1758   1.401       .  A
C1758      H1766   1.085       .  S
C1767      C1768   1.400       .  A
C1767      C1772   1.399       .  A
C1768      C1769   1.400       .  A
C1768      H1781   1.083       .  S
C1769      C1770   1.417       .  A
C1769      H1782   1.077       .  S
C1770      C1776   1.428       .  A
C1770      C1771   1.421       .  A
C1771      C1773   1.398       .  A
C1771      C1772   1.397       .  A
C1772      H1783   1.085       .  S
C1773      C1774   1.385       .  A
C1773      H1784   1.084       .  S
C1774      C1775   1.397       .  A
C1774      H1785   1.084       .  S
C1775      C1776   1.423       .  A
C1775      C1780   1.399       .  A
C1776      C1777   1.414       .  A
C1777      C1778   1.396       .  A
C1777      H1786   1.077       .  S
C1778      C1779   1.400       .  A
C1778      H1787   1.083       .  S
C1779      C1780   1.398       .  A
C1780      H1788   1.085       .  S
C1789      C1790   1.401       .  A
C1789      C1794   1.400       .  A
C1790      C1791   1.400       .  A
C1790      H1803   1.083       .  S
C1791      C1792   1.417       .  A
C1791      H1804   1.077       .  S
C1792      C1798   1.431       .  A
C1792      C1793   1.422       .  A
C1793      C1795   1.398       .  A
C1793      C1794   1.400       .  A
C1794      H1805   1.084       .  S
C1795      C1796   1.386       .  A
C1795      H1806   1.084       .  S
C1796      C1797   1.398       .  A
C1796      H1807   1.084       .  S
C1797      C1798   1.423       .  A
C1797      C1802   1.402       .  A
C1798      C1799   1.416       .  A
C1799      C1800   1.399       .  A
C1799      H1808   1.077       .  S
C1800      C1801   1.401       .  A
C1800      H1809   1.083       .  S
C1801      C1802   1.399       .  A
C1802      H1810   1.085       .  S
C1811      C1812   1.400       .  A
C1811      C1816   1.402       .  A
C1812      C1813   1.396       .  A
C1812      H1825   1.083       .  S
C1813      C1814   1.416       .  A
C1813      H1826   1.078       .  S
C1814      C1820   1.429       .  A
C1814      C1815   1.422       .  A
C1815      C1817   1.400       .  A
C1815      C1816   1.405       .  A
C1816      H1827   1.085       .  S
C1817      C1818   1.390       .  A
C1817      H1828   1.084       .  S
C1818      C1819   1.399       .  A
C1818      H1829   1.084       .  S
C1819      C1820   1.423       .  A
C1819      C1824   1.406       .  A
C1820      C1821   1.413       .  A
C1821      C1822   1.394       .  A
C1821      H1830   1.078       .  S
C1822      C1823   1.401       .  A
C1822      H1831   1.083       .  S
C1823      C1824   1.401       .  A
C1824      H1832   1.085       .  S
C1833      C1834   1.401       .  A
C1833      C1838   1.401       .  A
C1834      C1835   1.399       .  A
C1834      H1847   1.083       .  S
C1835      C1836   1.416       .  A
C1835      H1848   1.077       .  S
C1836      C1842   1.433       .  A
C1836      C1837   1.422       .  A
C1837      C1839   1.399       .  A
C1837      C1838   1.405       .  A
C1838      H1849   1.084       .  S
C1839      C1840   1.389       .  A
C1839      H1850   1.084       .  S
C1840      C1841   1.399       .  A
C1840      H1851   1.084       .  S
C1841      C1842   1.423       .  A
C1841      C1846   1.406       .  A
C1842      C1843   1.415       .  A
C1843      C1844   1.399       .  A
C1843      H1852   1.077       .  S
C1844      C1845   1.401       .  A
C1844      H1853   1.083       .  S
C1845      C1846   1.402       .  A
C1846      H1854   1.084       .  S
C1855      C1856   1.398       .  A
C1855      C1860   1.402       .  A
C1856      C1857   1.394       .  A
C1856      H1869   1.083       .  S
C1857      C1858   1.415       .  A
C1857      H1870   1.077       .  S
C1858      C1864   1.426       .  A
C1858      C1859   1.422       .  A
C1859      C1861   1.400       .  A
C1859      C1860   1.402       .  A
C1860      H1871   1.085       .  S
C1861      C1862   1.389       .  A
C1861      H1872   1.084       .  S
C1862      C1863   1.399       .  A
C1862      H1873   1.084       .  S
C1863      C1864   1.422       .  A
C1863      C1868   1.402       .  A
C1864      C1865   1.414       .  A
C1865      C1866   1.394       .  A
C1865      H1874   1.077       .  S
C1866      C1867   1.399       .  A
C1866      H1875   1.083       .  S
C1867      C1868   1.400       .  A
C1868      H1876   1.085       .  S
C1877      C1878   1.398       .  A
C1877      C1882   1.401       .  A
C1878      C1879   1.395       .  A
C1878      H1891   1.083       .  S
C1879      C1880   1.415       .  A
C1879      H1892   1.077       .  S
C1880      C1886   1.428       .  A
C1880      C1881   1.422       .  A
C1881      C1883   1.399       .  A
C1881      C1882   1.404       .  A
C1882      H1893   1.085       .  S
C1883      C1884   1.390       .  A
C1883      H1894   1.084       .  S
C1884      C1885   1.400       .  A
C1884      H1895   1.084       .  S
C1885      C1886   1.422       .  A
C1885      C1890   1.404       .  A
C1886      C1887   1.415       .  A
C1887      C1888   1.395       .  A
C1887      H1896   1.077       .  S
C1888      C1889   1.399       .  A
C1888      H1897   1.083       .  S
C1889      C1890   1.402       .  A
C1890      H1898   1.084       .  S
C1899      C1900   1.400       .  A
C1899      C1904   1.404       .  A
C1900      C1901   1.397       .  A
C1900      H1913   1.083       .  S
C1901      C1902   1.415       .  A
C1901      H1914   1.077       .  S
C1902      C1908   1.431       .  A
C1902      C1903   1.422       .  A
C1903      C1905   1.400       .  A
C1903      C1904   1.407       .  A
C1904      H1915   1.084       .  S
C1905      C1906   1.391       .  A
C1905      H1916   1.084       .  S
C1906      C1907   1.399       .  A
C1906      H1917   1.084       .  S
C1907      C1908   1.423       .  A
C1907      C1912   1.407       .  A
C1908      C1909   1.414       .  A
C1909      C1910   1.395       .  A
C1909      H1918   1.077       .  S
C1910      C1911   1.401       .  A
C1910      H1919   1.083       .  S
C1911      C1912   1.402       .  A
C1912      H1920   1.084       .  S
C1921      C1922   1.399       .  A
C1921      C1926   1.403       .  A
C1922      C1923   1.396       .  A
C1922      H1935   1.083       .  S
C1923      C1924   1.415       .  A
C1923      H1936   1.077       .  S
C1924      C1930   1.427       .  A
C1924      C1925   1.422       .  A
C1925      C1927   1.400       .  A
C1925      C1926   1.402       .  A
C1926      H1937   1.085       .  S
C1927      C1928   1.389       .  A
C1927      H1938   1.084       .  S
C1928      C1929   1.399       .  A
C1928      H1939   1.084       .  S
C1929      C1930   1.422       .  A
C1929      C1934   1.402       .  A
C1930      C1931   1.414       .  A
C1931      C1932   1.395       .  A
C1931      H1940   1.077       .  S
C1932      C1933   1.399       .  A
C1932      H1941   1.083       .  S
C1933      C1934   1.401       .  A
C1934      H1942   1.085       .  S
C1943      C1944   1.400       .  A
C1943      C1948   1.398       .  A
C1944      C1945   1.397       .  A
C1944      H1957   1.083       .  S
C1945      C1946   1.415       .  A
C1945      H1958   1.078       .  S
C1946      C1952   1.429       .  A
C1946      C1947   1.423       .  A
C1947      C1949   1.398       .  A
C1947      C1948   1.401       .  A
C1948      H1959   1.085       .  S
C1949      C1950   1.387       .  A
C1949      H1960   1.084       .  S
C1950      C1951   1.399       .  A
C1950      H1961   1.084       .  S
C1951      C1952   1.422       .  A
C1951      C1956   1.401       .  A
C1952      C1953   1.417       .  A
C1953      C1954   1.399       .  A
C1953      H1962   1.077       .  S
C1954      C1955   1.400       .  A
C1954      H1963   1.083       .  S
C1955      C1956   1.401       .  A
C1956      H1964   1.085       .  S
C1965      C1966   1.400       .  A
C1965      C1970   1.400       .  A
C1966      C1967   1.396       .  A
C1966      H1979   1.083       .  S
C1967      C1968   1.415       .  A
C1967      H1980   1.078       .  S
C1968      C1974   1.429       .  A
C1968      C1969   1.423       .  A
C1969      C1971   1.399       .  A
C1969      C1970   1.402       .  A
C1970      H1981   1.085       .  S
C1971      C1972   1.387       .  A
C1971      H1982   1.084       .  S
C1972      C1973   1.399       .  A
C1972      H1983   1.084       .  S
C1973      C1974   1.422       .  A
C1973      C1978   1.401       .  A
C1974      C1975   1.416       .  A
C1975      C1976   1.397       .  A
C1975      H1984   1.078       .  S
C1976      C1977   1.398       .  A
C1976      H1985   1.083       .  S
C1977      C1978   1.401       .  A
C1978      H1986   1.085       .  S
C1987      C1988   1.399   1_455  A
C1987      C1992   1.401       .  A
C1988      C1989   1.394       .  A
C1988      H2001   1.083   1_655  S
C1989      C1990   1.414       .  A
C1989      H2002   1.077       .  S
C1990      C1996   1.426       .  A
C1990      C1991   1.423       .  A
C1991      C1993   1.399       .  A
C1991      C1992   1.402   1_655  A
C1992      H2003   1.085       .  S
C1993      C1994   1.388       .  A
C1993      H2004   1.084       .  S
C1994      C1995   1.398       .  A
C1994      H2005   1.084       .  S
C1995      C1996   1.421       .  A
C1995      C2000   1.401       .  A
C1996      C1997   1.415       .  A
C1997      C1998   1.395       .  A
C1997      H2006   1.077       .  S
C1998      C1999   1.399       .  A
C1998      H2007   1.083       .  S
C1999      C2000   1.399       .  A
C2000      H2008   1.085       .  S
C2009      C2010   1.400       .  A
C2009      C2014   1.401       .  A
C2010      C2011   1.398   1_565  A
C2010      H2023   1.083       .  S
C2011      C2012   1.415       .  A
C2011      H2024   1.077       .  S
C2012      C2018   1.430       .  A
C2012      C2013   1.422       .  A
C2013      C2015   1.399       .  A
C2013      C2014   1.403   1_545  A
C2014      H2025   1.084       .  S
C2015      C2016   1.387       .  A
C2015      H2026   1.084       .  S
C2016      C2017   1.398       .  A
C2016      H2027   1.084       .  S
C2017      C2018   1.422       .  A
C2017      C2022   1.401       .  A
C2018      C2019   1.416       .  A
C2019      C2020   1.398       .  A
C2019      H2028   1.077       .  S
C2020      C2021   1.401       .  A
C2020      H2029   1.084       .  S
C2021      C2022   1.399       .  A
C2022      H2030   1.085       .  S
C2031      C2032   1.399       .  A
C2031      C2036   1.401       .  A
C2032      C2033   1.395       .  A
C2032      H2045   1.083       .  S
C2033      C2034   1.416       .  A
C2033      H2046   1.077       .  S
C2034      C2040   1.428       .  A
C2034      C2035   1.422       .  A
C2035      C2037   1.400       .  A
C2035      C2036   1.404       .  A
C2036      H2047   1.084       .  S
C2037      C2038   1.390       .  A
C2037      H2048   1.084       .  S
C2038      C2039   1.399       .  A
C2038      H2049   1.084       .  S
C2039      C2040   1.423       .  A
C2039      C2044   1.406       .  A
C2040      C2041   1.413       .  A
C2041      C2042   1.393       .  A
C2041      H2050   1.077       .  S
C2042      C2043   1.399       .  A
C2042      H2051   1.083       .  S
C2043      C2044   1.401       .  A
C2044      H2052   1.084       .  S
