geometry optimzed in LAMMPS
_audit_creation_date              2020-12-01 
_audit_creation_method            'lammps2cif' 
_symmetry_space_group_name_H-M    'P1' 
_symmetry_Int_Tables_number       1 
_symmetry_cell_setting            triclinic 
loop_ 
_symmetry_equiv_pos_as_xyz 
  x,y,z 
_cell_length_a                    30.76406538 
_cell_length_b                    30.69832686364134 
_cell_length_c                    39.26036621183815 
_cell_angle_alpha                 89.93255916972957 
_cell_angle_beta                  89.92088337015923 
_cell_angle_gamma                 119.96170383361411 
loop_ 
_atom_site_label 
_atom_site_type_symbol 
_atom_site_fract_x 
_atom_site_fract_y 
_atom_site_fract_z 
_atom_site_charge 
O1          O  0.74396438  0.75381212  0.27194676    -0.72200
O2          O  0.78228063  0.70683958  0.35618960    -0.73200
O3          O  0.69597910  0.66661926  0.31389641    -0.61800
O4          O  0.82973867  0.79270338  0.31430007    -0.70200
O5          O  0.79917960  0.83058652  0.34627105    -0.69700
O6          O  0.66421010  0.70265418  0.34664296    -0.61000
O7          O  0.75119769  0.74387053  0.38860283    -0.73500
O8          O  0.71263531  0.79082944  0.30407617    -0.72300
Cu9        Cu  0.76379650  0.72857987  0.31298185     1.04600
Cu10       Cu  0.73043638  0.76815596  0.34747887     1.04300
C11         C  0.72326784  0.78084040  0.27463488     0.94000
C12         C  0.77418836  0.71905399  0.38566141     0.93200
C13         C  0.65911958  0.66414533  0.33054584     0.85300
C14         C  0.83603748  0.83154180  0.33042544     0.91600
O15         O  0.33682609  0.29197352  0.35327530    -0.72200
O16         O  0.21214538  0.15470830  0.35359949    -0.73200
O17         O  0.29465644  0.20699257  0.30857952    -0.61800
O18         O  0.25241637  0.23861234  0.39872190    -0.70200
O19         O  0.21274299  0.27141298  0.37104236    -0.69700
O20         O  0.25455074  0.23989904  0.28182860    -0.61000
O21         O  0.17248741  0.18760684  0.32612725    -0.73500
O22         O  0.29594990  0.32409988  0.32639334    -0.72300
Cu23       Cu  0.27568626  0.22224029  0.35463699     1.04600
Cu24       Cu  0.23267171  0.25695412  0.32553070     1.04300
C25         C  0.33635077  0.32954995  0.33947020     0.94000
C26         C  0.17268643  0.14942689  0.33903454     0.93200
C27         C  0.27971207  0.21706370  0.28081785     0.85300
C28         C  0.22496180  0.25910412  0.39900404     0.91600
O29         O  0.03494082  0.83637567  0.64128196    -0.72200
O30         O  0.04782929  0.71215260  0.64491170    -0.73200
O31         O  0.00362850  0.75118967  0.59882059    -0.61800
O32         O  0.07876674  0.79772615  0.68737543    -0.70200
O33         O  0.00645547  0.75725963  0.71493819    -0.69700
O34         O  0.93135707  0.71084999  0.62661091    -0.61000
O35         O  0.97533692  0.67208167  0.67243911    -0.73500
O36         O  0.96288098  0.79607462  0.66925121    -0.72300
Cu37       Cu  0.04376743  0.77559489  0.64204968     1.04600
Cu38       Cu  0.96656410  0.73257433  0.67175391     1.04300
C39         C  0.99704219  0.83606690  0.65495089     0.94000
C40         C  0.01368505  0.67247306  0.65950349     0.93200
C41         C  0.95570100  0.72473171  0.59858598     0.85300
C42         C  0.05421303  0.78520869  0.71537795     0.91600
O43         O  0.08628003  0.28798369  0.64762782    -0.72200
O44         O  0.00198242  0.25348714  0.73276140    -0.73200
O45         O  0.03583240  0.20168309  0.68974371    -0.61800
O46         O  0.05183469  0.34053704  0.69055069    -0.70200
O47         O  0.98358664  0.31108787  0.65857024    -0.69700
O48         O  0.96660309  0.17315488  0.65902833    -0.61000
O49         O  0.93333718  0.22543640  0.70159575    -0.73500
O50         O  0.01739297  0.25890653  0.61646172    -0.72300
Cu51       Cu  0.04638485  0.27200962  0.69132696     1.04600
Cu52       Cu  0.97291807  0.24136687  0.65789367     1.04300
C53         C  0.06497141  0.27780822  0.61847995     0.94000
C54         C  0.95427634  0.23333565  0.73079091     0.93200
C55         C  0.99898472  0.16558827  0.67408689     0.85300
C56         C  0.01982919  0.34750613  0.67426151     0.91600
O57         O  0.74141032  0.00302538  0.94045313    -0.72200
O58         O  0.69949823  0.92627451  0.02993394    -0.73200
O59         O  0.65321126  0.96196304  0.98251250    -0.61800
O60         O  0.78563186  0.96659591  0.98692373    -0.70200
O61         O  0.81957410  0.03933682  0.01416987    -0.69700
O62         O  0.68610895  0.03322627  0.01149679    -0.61000
O63         O  0.73455487  0.99925656  0.05707674    -0.73500
O64         O  0.77279581  0.07437321  0.96919311    -0.72300
Cu65       Cu  0.71848213  0.96182622  0.98397323     1.04600
Cu66       Cu  0.75400336  0.03887734  0.01394594     1.04300
C67         C  0.76547733  0.05117726  0.94096464     0.94000
C68         C  0.71256817  0.95133568  0.05775891     0.93200
C69         C  0.64861780  0.99700799  0.99647120     0.85300
C70         C  0.82378696  0.00385820  0.00052311     0.91600
O71         O  0.27056061  0.06748897  0.03157051    -0.72200
O72         O  0.23364972  0.99867606  0.94081216    -0.73200
O73         O  0.18836245  0.03443693  0.98682382    -0.61800
O74         O  0.31691638  0.03131131  0.98560149    -0.70200
O75         O  0.27990763  0.95847083  0.01310132    -0.69700
O76         O  0.14997772  0.96005062  0.01215234    -0.61000
O77         O  0.19717241  0.92478712  0.96684193    -0.73500
O78         O  0.23139309  0.99408172  0.05818744    -0.72300
Cu79       Cu  0.25385623  0.03547657  0.98535346     1.04600
Cu80       Cu  0.21347645  0.95670401  0.01347641     1.04300
C81         C  0.25561828  0.04213920  0.05921450     0.94000
C82         C  0.20827869  0.95075011  0.93937855     0.93200
C83         C  0.14860453  0.99764419  0.99939985     0.85300
C84         C  0.31902093  0.99466656  0.99937192     0.91600
C85         C  0.01080849  0.96103376  0.00731264    -0.13600
C86         C  0.01216279  0.00466573  0.99521508     0.16800
C87         C  0.05830518  0.04600623  0.98523529     0.03100
C88         C  0.10208327  0.04289610  0.98691506    -0.12100
C89         C  0.10104083  0.99909187  0.99882390    -0.03200
C90         C  0.05458470  0.95792244  0.00936750     0.02300
C91         C  0.96516702  0.00675394  0.99474665     0.09200
N92         N  0.06121913  0.09114068  0.97276152     0.65500
H93         H  0.13695682  0.07503600  0.97877505     0.18400
N94         N  0.05092708  0.91281210  0.02257736     0.76000
H95         H  0.97567951  0.92951264  0.01576192     0.09900
C96         C  0.92353465  0.97205093  0.97567768     0.03600
C97         C  0.87805439  0.97167997  0.97819445    -0.05100
C98         C  0.87299636  0.00580567  0.99941462    -0.23500
C99         C  0.91520749  0.04117341  0.01817419     0.12900
C100        C  0.96069032  0.04123532  0.01572808    -0.12600
N101        N  0.92714609  0.93747409  0.95312022     0.64600
H102        H  0.84678446  0.94479140  0.96309062     0.12400
N103        N  0.91238007  0.07623511  0.04066559     0.61200
H104        H  0.99219719  0.06737558  0.03097395     0.08600
O105        O  0.03495257  0.87459333  0.00374103    -0.40300
O106        O  0.05425046  0.90827646  0.05427305    -0.39400
O107        O  0.07861120  0.12939714  0.99167087    -0.39400
O108        O  0.05599123  0.09572282  0.94132402    -0.37100
O109        O  0.90159350  0.06479027  0.07162363    -0.38000
O110        O  0.93002223  0.12132021  0.03133795    -0.34200
O111        O  0.90553571  0.89137059  0.96069051    -0.35600
O112        O  0.94367030  0.95133048  0.92329092    -0.39900
C113        C  0.42660955  0.97259159  0.02335148    -0.13600
C114        C  0.46062207  0.99774778  0.99681188     0.16800
C115        C  0.44765600  0.02100404  0.97101574     0.03100
C116        C  0.40145821  0.01956316  0.97235421    -0.12100
C117        C  0.36715206  0.99444231  0.99891549    -0.03200
C118        C  0.38001123  0.97042018  0.02448892     0.02300
C119        C  0.50908683  0.99847295  0.99617552     0.09200
N120        N  0.48141398  0.04692583  0.94358376     0.65500
H121        H  0.39232340  0.03796611  0.95239992     0.18400
N122        N  0.34690884  0.94483380  0.05228705     0.76000
H123        H  0.43621710  0.95437562  0.04316812     0.09900
C124        C  0.54653157  0.02603892  0.02036235     0.03600
C125        C  0.59143238  0.02494906  0.01989418    -0.05100
C126        C  0.59981412  0.99603077  0.99582180    -0.23500
C127        C  0.56168254  0.96767192  0.97181962     0.12900
C128        C  0.51702900  0.96956269  0.97201429    -0.12600
N129        N  0.53970117  0.05585959  0.04537515     0.64600
H130        H  0.61970973  0.04668277  0.03868225     0.12400
N131        N  0.56756938  0.93703589  0.94694847     0.61200
H132        H  0.48813054  0.94779070  0.95359444     0.08600
O133        O  0.35254093  0.96755887  0.08011617    -0.40300
O134        O  0.31903080  0.89769264  0.05120318    -0.39400
O135        O  0.47292470  0.02701190  0.91446389    -0.39400
O136        O  0.51447369  0.09254409  0.94701427    -0.37100
O137        O  0.55105597  0.89106974  0.95321626    -0.38000
O138        O  0.57940001  0.95294516  0.91679863    -0.34200
O139        O  0.53027726  0.04065921  0.07580773    -0.35600
O140        O  0.55201151  0.10072959  0.03848516    -0.39900
C141        C  0.82000926  0.09115905  0.85150291    -0.13600
C142        C  0.83973158  0.14332262  0.85302545     0.16800
C143        C  0.83208960  0.16451067  0.88259541     0.03100
C144        C  0.80636602  0.13354769  0.91039426    -0.12100
C145        C  0.78750881  0.08122765  0.90937425    -0.03200
C146        C  0.79415493  0.06007868  0.87920008     0.02300
C147        C  0.86863394  0.17416786  0.82335293     0.09200
N148        N  0.84906969  0.21709384  0.88454859     0.65500
H149        H  0.80139464  0.15078465  0.93297963     0.18400
N150        N  0.77696940  0.00754112  0.87659831     0.76000
H151        H  0.82572900  0.07454788  0.82884221     0.09900
C152        C  0.92120968  0.20510771  0.82442898     0.03600
C153        C  0.94800663  0.22661036  0.79429428    -0.05100
C154        C  0.92349098  0.21716288  0.76261238    -0.23500
C155        C  0.87038129  0.18870735  0.76214068     0.12900
C156        C  0.84369307  0.16756330  0.79233144    -0.12600
N157        N  0.94841233  0.21157714  0.85528432     0.64600
H158        H  0.98849955  0.24849472  0.79558874     0.12400
N159        N  0.84281531  0.17849706  0.73111223     0.61200
H160        H  0.80329635  0.14400045  0.79131133     0.08600
O161        O  0.80674480  0.99158158  0.88307832    -0.40300
O162        O  0.73627900  0.97927938  0.86144988    -0.39400
O163        O  0.82210584  0.23349410  0.87225883    -0.39400
O164        O  0.88360695  0.24415080  0.90509791    -0.37100
O165        O  0.82940896  0.13768319  0.71570141    -0.38000
O166        O  0.82361137  0.20498886  0.72298778    -0.34200
O167        O  0.95695069  0.17735105  0.86496394    -0.35600
O168        O  0.97295474  0.25478721  0.86828439    -0.39900
C169        C  0.15482959  0.85465371  0.78321513    -0.13600
C170        C  0.12512423  0.84540247  0.81238996     0.16800
C171        C  0.07274693  0.81421270  0.80986577     0.03100
C172        C  0.05095807  0.79356790  0.77836988    -0.12100
C173        C  0.08026307  0.80405598  0.74866835    -0.03200
C174        C  0.13306626  0.83432587  0.75155068     0.02300
C175        C  0.14900838  0.87193682  0.84450009     0.09200
N176        N  0.04074041  0.80603920  0.83847164     0.65500
H177        H  0.01052382  0.77086287  0.77706973     0.18400
N178        N  0.16527047  0.84565081  0.72266016     0.76000
H179        H  0.19511108  0.87863923  0.78492213     0.09900
C180        C  0.15054747  0.84617623  0.87376922     0.03600
C181        C  0.17055613  0.87260155  0.90417159    -0.05100
C182        C  0.19014172  0.92490938  0.90598241    -0.23500
C183        C  0.18968815  0.95074063  0.87614526     0.12900
C184        C  0.16917284  0.92410540  0.84593227    -0.12600
N185        N  0.13354464  0.79353376  0.87274032     0.64600
H186        H  0.17110663  0.85199185  0.92639044     0.12400
N187        N  0.20812912  0.00367938  0.87617238     0.61200
H188        H  0.16803858  0.94418851  0.82356782     0.08600
O189        O  0.18652709  0.82020615  0.71730947    -0.40300
O190        O  0.18007200  0.88649174  0.70683636    -0.39400
O191        O  0.02899967  0.83883141  0.84589527    -0.39400
O192        O  0.01545046  0.76238372  0.85081128    -0.37100
O193        O  0.25134854  0.03312217  0.86448806    -0.38000
O194        O  0.17799957  0.01970703  0.88100137    -0.34200
O195        O  0.16085002  0.77864806  0.85890460    -0.35600
O196        O  0.09774562  0.76381447  0.89170418    -0.39900
C197        C  0.04240148  0.47809352  0.69686475    -0.13600
C198        C  0.02465954  0.48974483  0.66729719     0.16800
C199        C  0.00841796  0.45607317  0.63974606     0.03100
C200        C  0.00776064  0.41038687  0.64263497    -0.12100
C201        C  0.02424350  0.39776460  0.67243657    -0.03200
C202        C  0.04264033  0.43256541  0.69957805     0.02300
C203        C  0.02191523  0.53646105  0.66577419     0.09200
N204        N  0.99376606  0.46839079  0.60829327     0.65500
H205        H  0.99472028  0.38481587  0.62122423     0.18400
N206        N  0.05925776  0.42131570  0.73060369     0.76000
H207        H  0.05511738  0.50394809  0.71811231     0.09900
C208        C  0.97573575  0.53519955  0.66913097     0.03600
C209        C  0.97397097  0.57977946  0.66680750    -0.05100
C210        C  0.01779189  0.62629874  0.66140269    -0.23500
C211        C  0.06419635  0.62741573  0.65837033     0.12900
C212        C  0.06580236  0.58260957  0.66047671    -0.12600
N213        N  0.93048035  0.48908531  0.67594025     0.64600
H214        H  0.93803688  0.57786545  0.66939620     0.12400
N215        N  0.11026425  0.67376058  0.65448488     0.61200
H216        H  0.10145450  0.58384535  0.65812401     0.08600
O217        O  0.02851401  0.40058723  0.75473809    -0.40300
O218        O  0.10566035  0.44103569  0.73628679    -0.39400
O219        O  0.02695573  0.49419103  0.58647017    -0.39400
O220        O  0.94831119  0.44476084  0.59943409    -0.37100
O221        O  0.13392617  0.69779665  0.68059306    -0.38000
O222        O  0.13145650  0.68578281  0.62573535    -0.34200
O223        O  0.91934389  0.47398426  0.70630106    -0.35600
O224        O  0.89726897  0.46981362  0.65318875    -0.39900
C225        C  0.94894636  0.02475060  0.66269979    -0.13600
C226        C  0.99276093  0.02214340  0.66768841     0.16800
C227        C  0.03792113  0.06654628  0.67519172     0.03100
C228        C  0.03870631  0.11237504  0.67776224    -0.12100
C229        C  0.99512072  0.11538933  0.67252739    -0.03200
C230        C  0.94976441  0.07080106  0.66484902     0.02300
C231        C  0.99148513  0.97341845  0.66341960     0.09200
N232        N  0.08345191  0.06571862  0.68044481     0.65500
H233        H  0.07393878  0.14589233  0.68334339     0.18400
N234        N  0.90416533  0.07137787  0.65918523     0.76000
H235        H  0.91422337  0.99112271  0.65639934     0.09900
C236        C  0.95997097  0.93106579  0.68343490     0.03600
C237        C  0.96102746  0.88625204  0.67936940    -0.05100
C238        C  0.99336084  0.88260911  0.65560058    -0.23500
C239        C  0.02330560  0.92454614  0.63452851     0.12900
C240        C  0.02211861  0.96928622  0.63863148    -0.12600
N241        N  0.92844156  0.93365280  0.70916855     0.64600
H242        H  0.93771085  0.85483070  0.69582295     0.12400
N243        N  0.05443593  0.92225218  0.60836385     0.61200
H244        H  0.04510604  0.00092625  0.62225855     0.08600
O245        O  0.87265372  0.05920343  0.68304926    -0.40300
O246        O  0.89128615  0.07432837  0.62914995    -0.39400
O247        O  0.11738603  0.08376940  0.65799227    -0.39400
O248        O  0.09333470  0.05578607  0.70963438    -0.37100
O249        O  0.03587983  0.90505499  0.57948232    -0.38000
O250        O  0.10146576  0.94577227  0.61197567    -0.34200
O251        O  0.88154026  0.91097497  0.70490538    -0.35600
O252        O  0.94632997  0.95055147  0.73823228    -0.39900
C253        C  0.16464763  0.28921665  0.55530313    -0.13600
C254        C  0.14334059  0.29097670  0.52408905     0.16800
C255        C  0.09830887  0.29272041  0.52441632     0.03100
C256        C  0.07492560  0.29099839  0.55552945    -0.12100
C257        C  0.09480877  0.28647398  0.58670114    -0.03200
C258        C  0.14083892  0.28657908  0.58635216     0.02300
C259        C  0.16584532  0.28499589  0.49198273     0.09200
N260        N  0.07345472  0.29195507  0.49349546     0.65500
H261        H  0.03971996  0.29092881  0.55512636     0.18400
N262        N  0.16191681  0.27971902  0.61690470     0.76000
H263        H  0.19894419  0.28748948  0.55549226     0.09900
C264        C  0.18187482  0.32010210  0.46494948     0.03600
C265        C  0.20080655  0.31085194  0.43486801    -0.05100
C266        C  0.20626735  0.26821124  0.43163590    -0.23500
C267        C  0.19143023  0.23394734  0.45906010     0.12900
C268        C  0.17096382  0.24225642  0.48856215    -0.12600
N269        N  0.18196317  0.36653870  0.46829541     0.64600
H270        H  0.21272972  0.33793488  0.41429707     0.12400
N271        N  0.19405454  0.18891611  0.45670701     0.61200
H272        H  0.15852370  0.21476751  0.50891279     0.08600
O273        O  0.20008647  0.31664913  0.62975259    -0.40300
O274        O  0.14928014  0.23575874  0.62664223    -0.39400
O275        O  0.04934427  0.25118202  0.47739495    -0.39400
O276        O  0.06557774  0.32769448  0.48698445    -0.37100
O277        O  0.23267831  0.18877050  0.46731450    -0.38000
O278        O  0.15428048  0.14765893  0.45187575    -0.34200
O279        O  0.21156120  0.39901014  0.48918295    -0.35600
O280        O  0.16105271  0.37925487  0.44586975    -0.39900
C281        C  0.31077288  0.14783281  0.21257161    -0.13600
C282        C  0.28832997  0.15544775  0.18388340     0.16800
C283        C  0.26794466  0.18741478  0.18640823     0.03100
C284        C  0.26857114  0.20960439  0.21770085    -0.12100
C285        C  0.28840104  0.19986182  0.24720285    -0.03200
C286        C  0.31115827  0.16972684  0.24402967     0.02300
C287        C  0.28264558  0.12638957  0.15243794     0.09200
N288        N  0.24291795  0.19459581  0.15814319     0.65500
H289        H  0.25092640  0.23245307  0.21913985     0.18400
N290        N  0.33314888  0.15922026  0.27260599     0.76000
H291        H  0.32671530  0.12346902  0.21077747     0.09900
C292        C  0.31073548  0.14925344  0.12284536     0.03600
C293        C  0.30203795  0.12086586  0.09312673    -0.05100
C294        C  0.26575175  0.06940093  0.09220551    -0.23500
C295        C  0.23845999  0.04632678  0.12230878     0.12900
C296        C  0.24717564  0.07492154  0.15198343    -0.12600
N297        N  0.34897635  0.20100011  0.12273819     0.64600
H298        H  0.32393985  0.13938158  0.07064318     0.12400
N299        N  0.20022525  0.99456955  0.12293827     0.61200
H300        H  0.22529427  0.05709152  0.17462466     0.08600
O301        O  0.38007978  0.18406309  0.27661657    -0.40300
O302        O  0.30754384  0.11923028  0.28938476    -0.39400
O303        O  0.19783336  0.16218254  0.15213736    -0.39400
O304        O  0.26164023  0.23731961  0.14425966    -0.37100
O305        O  0.20969637  0.96234947  0.13546140    -0.38000
O306        O  0.15529138  0.98268490  0.11717608    -0.34200
O307        O  0.39270235  0.21283887  0.13216329    -0.35600
O308        O  0.34229222  0.23240014  0.10616517    -0.39900
C309        C  0.85340229  0.66854498  0.53073858    -0.13600
C310        C  0.87630694  0.70325149  0.50411332     0.16800
C311        C  0.92605395  0.74300311  0.50822317     0.03100
C312        C  0.95204038  0.74670074  0.53829877    -0.12100
C313        C  0.92859608  0.71340312  0.56560033    -0.03200
C314        C  0.87869536  0.67365310  0.56149035     0.02300
C315        C  0.84657887  0.69994299  0.47343879     0.09200
N316        N  0.94895752  0.78283476  0.48373893     0.65500
H317        H  0.98961644  0.77832320  0.54124799     0.18400
N318        N  0.85272958  0.63865974  0.58834670     0.76000
H319        H  0.81512338  0.63814393  0.52799321     0.09900
C320        C  0.86323520  0.69824188  0.44022841     0.03600
C321        C  0.83789537  0.70273052  0.41205601    -0.05100
C322        C  0.79517261  0.70765217  0.41614883    -0.23500
C323        C  0.77638745  0.70544572  0.44934072     0.12900
C324        C  0.80234537  0.70202570  0.47757119    -0.12600
N325        N  0.90516474  0.69100497  0.43463725     0.64600
H326        H  0.85236805  0.70322868  0.38683733     0.12400
N327        N  0.73032478  0.70508466  0.45490280     0.61200
H328        H  0.78852933  0.70226430  0.50289969     0.08600
O329        O  0.85013795  0.59632640  0.58805916    -0.40300
O330        O  0.82350038  0.64533871  0.60739679    -0.39400
O331        O  0.93047687  0.81088610  0.47866669    -0.39400
O332        O  0.99245673  0.79629963  0.47276161    -0.37100
O333        O  0.73137034  0.74519837  0.46345865    -0.38000
O334        O  0.69077709  0.66356519  0.45976586    -0.34200
O335        O  0.90142913  0.64932073  0.44225751    -0.35600
O336        O  0.94091488  0.72128192  0.41583965    -0.39900
C337        C  0.94308588  0.96715891  0.33821750    -0.13600
C338        C  0.98465711  0.96198419  0.33001569     0.16800
C339        C  0.97735750  0.91394612  0.32271246     0.03100
C340        C  0.92877632  0.87216828  0.32300973    -0.12100
C341        C  0.88676134  0.87716849  0.33083977    -0.03200
C342        C  0.89449788  0.92544057  0.33877010     0.02300
C343        C  0.03519575  0.00739827  0.32992396     0.09200
N344        N  0.01874343  0.90714445  0.31416729     0.65500
H345        H  0.92405492  0.83564046  0.31713791     0.18400
N346        N  0.85353554  0.93320093  0.34667504     0.76000
H347        H  0.94842511  0.00388171  0.34426919     0.09900
C348        C  0.04697325  0.04708440  0.30706536     0.03600
C349        C  0.09211189  0.09240001  0.31036266    -0.05100
C350        C  0.12686494  0.09913732  0.33595631    -0.23500
C351        C  0.11617955  0.05819152  0.35778799     0.12900
C352        C  0.07029452  0.01301878  0.35480677    -0.12600
N353        N  0.01352520  0.04170862  0.28009039     0.64600
H354        H  0.09989796  0.12248464  0.29266651     0.12400
N355        N  0.15024441  0.06218434  0.38394369     0.61200
H356        H  0.06150509  0.98269887  0.37252030     0.08600
O357        O  0.83282521  0.94422673  0.32311930    -0.40300
O358        O  0.84514259  0.93918796  0.37728977    -0.39400
O359        O  0.03574077  0.88948256  0.33609855    -0.39400
O360        O  0.03171725  0.90962143  0.28340443    -0.37100
O361        O  0.13821933  0.06178819  0.41471853    -0.38000
O362        O  0.18525692  0.05358209  0.37678930    -0.34200
O363        O  0.98661002  0.06188054  0.28269973    -0.35600
O364        O  0.01817615  0.02574743  0.25149135    -0.39900
C365        C  0.42797916  0.47061091  0.33230864    -0.13600
C366        C  0.47421678  0.47202404  0.33201960     0.16800
C367        C  0.47498313  0.42659843  0.33468029     0.03100
C368        C  0.42977636  0.38077735  0.33727635    -0.12100
C369        C  0.38329553  0.37916975  0.33764038    -0.03200
C370        C  0.38277458  0.42488973  0.33517755     0.02300
C371        C  0.52111271  0.52153928  0.33080174     0.09200
N372        N  0.52134242  0.42649622  0.33642521     0.65500
H373        H  0.43113778  0.34630954  0.33917975     0.18400
N374        N  0.33693917  0.42594292  0.33726687     0.76000
H375        H  0.42704075  0.50534736  0.33084964     0.09900
C376        C  0.55381524  0.53669872  0.30255847     0.03600
C377        C  0.59839150  0.58325579  0.30302927    -0.05100
C378        C  0.61067676  0.61598467  0.33093819    -0.23500
C379        C  0.57726927  0.60106890  0.35887901     0.12900
C380        C  0.53308886  0.55416332  0.35861451    -0.12600
N381        N  0.54125580  0.50638336  0.27260019     0.64600
H382        H  0.62302359  0.59428181  0.28110737     0.12400
N383        N  0.58894915  0.63163429  0.38859525     0.61200
H384        H  0.50832220  0.54279056  0.38048323     0.08600
O385        O  0.31971601  0.43557636  0.31096258    -0.40300
O386        O  0.31956985  0.42736579  0.36612003    -0.39400
O387        O  0.54504023  0.43719896  0.36419884    -0.39400
O388        O  0.53258067  0.40550738  0.31315690    -0.37100
O389        O  0.60976615  0.62339578  0.41346031    -0.38000
O390        O  0.56916875  0.65868532  0.39277512    -0.34200
O391        O  0.50942357  0.50594517  0.25215697    -0.35600
O392        O  0.56943811  0.48987603  0.26289181    -0.39900
C393        C  0.70785757  0.80831447  0.18203138    -0.13600
C394        C  0.70561174  0.85263096  0.18524249     0.16800
C395        C  0.70580607  0.87129668  0.21813180     0.03100
C396        C  0.71043100  0.84670656  0.24687032    -0.12100
C397        C  0.71391811  0.80292450  0.24367010    -0.03200
C398        C  0.71156151  0.78323636  0.21075312     0.01700
C399        C  0.70514506  0.87942026  0.15376110     0.09200
N400        N  0.69969502  0.91412740  0.22288842     0.65500
H401        H  0.71163149  0.86224794  0.27179882     0.18400
N402        N  0.71161909  0.73714176  0.20597494     0.76000
H403        H  0.70718044  0.79328352  0.15698959     0.09900
C404        C  0.74404940  0.92868581  0.14653992     0.03600
C405        C  0.74359648  0.95185367  0.11592946    -0.05100
C406        C  0.70651735  0.92614105  0.09115235    -0.23500
C407        C  0.66775806  0.87674680  0.09824520     0.12900
C408        C  0.66707511  0.85408420  0.12951728    -0.12600
N409        N  0.78675710  0.95395217  0.16837794     0.64600
H410        H  0.77453011  0.98915679  0.11056521     0.12400
N411        N  0.62869122  0.84922038  0.07420893     0.61200
H412        H  0.63716523  0.81617488  0.13467031     0.08600
O413        O  0.74987970  0.73788516  0.19364136    -0.40300
O414        O  0.67081986  0.69600293  0.20789740    -0.39400
O415        O  0.65719893  0.90982892  0.21797171    -0.39400
O416        O  0.73264194  0.95184701  0.23886990    -0.37100
O417        O  0.63047710  0.81645376  0.05583438    -0.38000
O418        O  0.58825636  0.85019460  0.07631316    -0.34200
O419        O  0.81620816  0.93675600  0.17156736    -0.35600
O420        O  0.80080099  0.99817383  0.17816371    -0.39900
loop_ 
_geom_bond_atom_site_label_1 
_geom_bond_atom_site_label_2 
_geom_bond_distance 
_geom_bond_site_symmetry_2 
_ccdc_geom_bond_type 
O1           Cu9   2.010       .  S
O1           C11   1.278       .  A
O2           Cu9   2.006       .  S
O2           C12   1.279       .  A
O3           Cu9   2.002       .  S
O3           C13   1.277       .  A
O4           Cu9   2.001       .  S
O4           C14   1.277       .  A
O5          Cu10   2.025       .  S
O5           C14   1.280       .  A
O6          Cu10   2.026       .  S
O6           C13   1.280       .  A
O7          Cu10   2.011       .  S
O7           C12   1.278       .  A
O8          Cu10   2.017       .  S
O8           C11   1.279       .  A
Cu9         Cu10   2.368       .  S
C11         C397   1.488       .  S
C12         C322   1.483       .  S
C13         C378   1.485       .  S
C14         C341   1.488       .  S
O15         Cu23   2.025       .  S
O15          C25   1.281       .  A
O16         Cu23   2.018       .  S
O16          C26   1.278       .  A
O17         Cu23   2.025       .  S
O17          C27   1.280       .  A
O18         Cu23   2.029       .  S
O18          C28   1.281       .  A
O19         Cu24   2.009       .  S
O19          C28   1.277       .  A
O20         Cu24   2.005       .  S
O20          C27   1.278       .  A
O21         Cu24   2.006       .  S
O21          C26   1.279       .  A
O22         Cu24   2.008       .  S
O22          C25   1.277       .  A
Cu23        Cu24   2.367       .  S
C25         C369   1.488       .  S
C26         C350   1.487       .  S
C27         C285   1.495       .  S
C28         C266   1.486       .  S
O29         Cu37   2.015       .  S
O29          C39   1.279   1_455  A
O30         Cu37   2.016       .  S
O30          C40   1.278       .  A
O31         Cu37   2.013       .  S
O31          C41   1.280   1_455  A
O32         Cu37   2.016       .  S
O32          C42   1.278       .  A
O33         Cu38   2.009   1_455  S
O33          C42   1.279       .  A
O34         Cu38   2.011       .  S
O34          C41   1.277       .  A
O35         Cu38   2.006       .  S
O35          C40   1.278   1_655  A
O36         Cu38   2.011       .  S
O36          C39   1.279       .  A
Cu37        Cu38   2.367   1_455  S
C39         C238   1.489       .  S
C40         C210   1.486       .  S
C41         C313   1.486       .  S
C42         C173   1.492       .  S
O43         Cu51   2.020       .  S
O43          C53   1.279       .  A
O44         Cu51   2.013       .  S
O44          C54   1.279   1_455  A
O45         Cu51   2.018       .  S
O45          C55   1.280   1_455  A
O46         Cu51   2.025       .  S
O46          C56   1.279       .  A
O47         Cu52   1.997       .  S
O47          C56   1.277   1_655  A
O48         Cu52   2.004       .  S
O48          C55   1.276       .  A
O49         Cu52   2.016       .  S
O49          C54   1.278       .  A
O50         Cu52   2.016   1_455  S
O50          C53   1.280       .  A
Cu51        Cu52   2.367   1_455  S
C53         C257   1.491       .  S
C54         C154   1.493       .  S
C55         C229   1.487       .  S
C56         C201   1.481       .  S
O57         Cu65   2.029   1_545  S
O57          C67   1.281       .  A
O58         Cu65   2.036   1_554  S
O58          C68   1.281       .  A
O59         Cu65   2.011       .  S
O59          C69   1.277       .  A
O60         Cu65   2.000       .  S
O60          C70   1.278   1_566  A
O61         Cu66   2.010       .  S
O61          C70   1.278       .  A
O62         Cu66   2.010       .  S
O62          C69   1.279   1_544  A
O63         Cu66   1.993   1_565  S
O63          C68   1.276       .  A
O64         Cu66   1.993   1_556  S
O64          C67   1.276       .  A
Cu65        Cu66   2.367   1_566  S
C67         C145   1.490       .  S
C68         C406   1.485       .  S
C69         C126   1.487       .  S
C70          C98   1.486   1_554  S
O71         Cu79   2.006   1_554  S
O71          C81   1.278       .  A
O72         Cu79   2.007   1_565  S
O72          C82   1.277       .  A
O73         Cu79   2.000       .  S
O73          C83   1.278   1_545  A
O74         Cu79   2.007       .  S
O74          C84   1.278   1_545  A
O75         Cu80   2.017       .  S
O75          C84   1.278   1_554  A
O76         Cu80   2.008       .  S
O76          C83   1.277   1_554  A
O77         Cu80   2.020   1_556  S
O77          C82   1.280       .  A
O78         Cu80   2.019       .  S
O78          C81   1.279   1_565  A
Cu79        Cu80   2.366   1_546  S
C81         C294   1.489       .  S
C82         C182   1.491       .  S
C83          C89   1.486       .  S
C84         C117   1.484       .  S
C85          C86   1.401   1_564  A
C85          C90   1.399       .  A
C85          H95   1.081   1_455  S
C86          C91   1.479   1_455  S
C86          C87   1.406       .  A
C87          C88   1.399       .  A
C87          N92   1.429       .  S
C88          C89   1.408   1_545  A
C88          H93   1.081       .  S
C89          C90   1.416   1_556  A
C90          N94   1.429       .  S
C91          C96   1.406   1_545  A
C91         C100   1.402   1_556  A
N92         O107   1.262       .  A
N92         O108   1.262       .  A
N94         O105   1.262       .  A
N94         O106   1.262       .  A
C96          C97   1.397       .  A
C96         N101   1.429       .  S
C97          C98   1.407   1_565  A
C97         H102   1.081       .  S
C98          C99   1.416   1_556  A
C99         C100   1.401       .  A
C99         N103   1.429       .  S
C100        H104   1.081       .  S
N101        O111   1.262       .  A
N101        O112   1.262       .  A
N103        O109   1.262       .  A
N103        O110   1.262       .  A
C113        C114   1.402   1_554  A
C113        C118   1.402       .  A
C113        H123   1.082       .  S
C114        C119   1.480       .  S
C114        C115   1.407   1_565  A
C115        C116   1.401       .  A
C115        N120   1.429       .  S
C116        C117   1.406   1_545  A
C116        H121   1.082       .  S
C117        C118   1.414   1_556  A
C118        N122   1.429       .  S
C119        C124   1.406   1_566  A
C119        C128   1.402       .  A
N120        O135   1.262       .  A
N120        O136   1.262       .  A
N122        O133   1.262       .  A
N122        O134   1.262       .  A
C124        C125   1.398       .  A
C124        N129   1.428       .  S
C125        C126   1.406   1_544  A
C125        H130   1.081       .  S
C126        C127   1.417       .  A
C127        C128   1.404       .  A
C127        N131   1.429       .  S
C128        H132   1.081       .  S
N129        O139   1.262       .  A
N129        O140   1.262       .  A
N131        O137   1.262       .  A
N131        O138   1.262       .  A
C141        C142   1.402       .  A
C141        C146   1.401       .  A
C141        H151   1.083       .  S
C142        C147   1.483       .  S
C142        C143   1.407       .  A
C143        C144   1.402       .  A
C143        N148   1.429       .  S
C144        C145   1.410       .  A
C144        H149   1.082       .  S
C145        C146   1.414       .  A
C146        N150   1.428       .  S
C147        C152   1.409       .  A
C147        C156   1.400       .  A
N148        O163   1.262       .  A
N148        O164   1.262       .  A
N150        O161   1.262   1_545  A
N150        O162   1.262   1_545  A
C152        C153   1.402       .  A
C152        N157   1.430       .  S
C153        C154   1.409       .  A
C153        H158   1.082       .  S
C154        C155   1.417       .  A
C155        C156   1.401       .  A
C155        N159   1.428       .  S
C156        H160   1.082       .  S
N157        O167   1.262       .  A
N157        O168   1.262       .  A
N159        O165   1.262       .  A
N159        O166   1.262       .  A
C169        C170   1.402       .  A
C169        C174   1.404       .  A
C169        H179   1.082       .  S
C170        C175   1.483       .  S
C170        C171   1.408       .  A
C171        C172   1.400       .  A
C171        N176   1.429       .  S
C172        C173   1.408       .  A
C172        H177   1.082       .  S
C173        C174   1.417       .  A
C174        N178   1.429       .  S
C175        C180   1.408       .  A
C175        C184   1.400       .  A
N176        O191   1.262       .  A
N176        O192   1.262       .  A
N178        O189   1.262       .  A
N178        O190   1.262       .  A
C180        C181   1.403       .  A
C180        N185   1.429       .  S
C181        C182   1.407       .  A
C181        H186   1.082       .  S
C182        C183   1.418       .  A
C183        C184   1.401       .  A
C183        N187   1.429   1_565  S
C184        H188   1.083       .  S
N185        O195   1.262       .  A
N185        O196   1.262       .  A
N187        O193   1.262       .  A
N187        O194   1.262       .  A
C197        C198   1.403       .  A
C197        C202   1.405       .  A
C197        H207   1.082       .  S
C198        C203   1.479       .  S
C198        C199   1.406       .  A
C199        C200   1.397       .  A
C199        N204   1.429   1_455  S
C200        C201   1.405       .  A
C200        H205   1.082   1_455  S
C201        C202   1.413       .  A
C202        N206   1.429       .  S
C203        C208   1.408   1_455  A
C203        C212   1.400       .  A
N204        O219   1.262   1_655  A
N204        O220   1.261       .  A
N206        O217   1.262       .  A
N206        O218   1.262       .  A
C208        C209   1.399       .  A
C208        N213   1.429       .  S
C209        C210   1.406   1_655  A
C209        H214   1.082       .  S
C210        C211   1.416       .  A
C211        C212   1.403       .  A
C211        N215   1.429       .  S
C212        H216   1.082       .  S
N213        O223   1.262       .  A
N213        O224   1.262       .  A
N215        O221   1.262       .  A
N215        O222   1.262       .  A
C225        C226   1.404       .  A
C225        C230   1.404       .  A
C225        H235   1.081   1_545  S
C226        C231   1.486   1_545  S
C226        C227   1.409   1_655  A
C227        C228   1.399       .  A
C227        N232   1.429       .  S
C228        C229   1.405   1_455  A
C228        H233   1.081       .  S
C229        C230   1.416       .  A
C230        N234   1.429       .  S
C231        C236   1.409       .  A
C231        C240   1.403   1_655  A
N232        O247   1.262       .  A
N232        O248   1.262       .  A
N234        O245   1.262       .  A
N234        O246   1.262       .  A
C236        C237   1.402       .  A
C236        N241   1.429       .  S
C237        C238   1.408       .  A
C237        H242   1.081       .  S
C238        C239   1.415   1_655  A
C239        C240   1.402       .  A
C239        N243   1.429       .  S
C240        H244   1.081   1_565  S
N241        O251   1.262       .  A
N241        O252   1.262       .  A
N243        O249   1.262       .  A
N243        O250   1.262       .  A
C253        C254   1.404       .  A
C253        C258   1.403       .  A
C253        H263   1.083       .  S
C254        C259   1.492       .  S
C254        C255   1.413       .  A
C255        C256   1.404       .  A
C255        N260   1.430       .  S
C256        C257   1.406       .  A
C256        H261   1.082       .  S
C257        C258   1.415       .  A
C258        N262   1.429       .  S
C259        C264   1.413       .  A
C259        C268   1.404       .  A
N260        O275   1.262       .  A
N260        O276   1.262       .  A
N262        O273   1.262       .  A
N262        O274   1.262       .  A
C264        C265   1.407       .  A
C264        N269   1.430       .  S
C265        C266   1.406       .  A
C265        H270   1.082       .  S
C266        C267   1.411       .  A
C267        C268   1.401       .  A
C267        N271   1.428       .  S
C268        H272   1.083       .  S
N269        O279   1.262       .  A
N269        O280   1.262       .  A
N271        O277   1.262       .  A
N271        O278   1.261       .  A
C281        C282   1.401       .  A
C281        C286   1.404       .  A
C281        H291   1.082       .  S
C282        C287   1.483       .  S
C282        C283   1.407       .  A
C283        C284   1.401       .  A
C283        N288   1.430       .  S
C284        C285   1.409       .  A
C284        H289   1.082       .  S
C285        C286   1.417       .  A
C286        N290   1.428       .  S
C287        C292   1.407       .  A
C287        C296   1.402       .  A
N288        O303   1.262       .  A
N288        O304   1.262       .  A
N290        O301   1.262       .  A
N290        O302   1.262       .  A
C292        C293   1.401       .  A
C292        N297   1.429       .  S
C293        C294   1.408       .  A
C293        H298   1.082       .  S
C294        C295   1.416       .  A
C295        C296   1.403       .  A
C295        N299   1.429   1_545  S
C296        H300   1.083       .  S
N297        O307   1.262       .  A
N297        O308   1.262       .  A
N299        O305   1.262       .  A
N299        O306   1.262       .  A
C309        C310   1.404       .  A
C309        C314   1.403       .  A
C309        H319   1.083       .  S
C310        C315   1.486       .  S
C310        C311   1.412       .  A
C311        C312   1.399       .  A
C311        N316   1.432       .  S
C312        C313   1.405       .  A
C312        H317   1.083       .  S
C313        C314   1.415       .  A
C314        N318   1.429       .  S
C315        C320   1.411       .  A
C315        C324   1.403       .  A
N316        O331   1.262       .  A
N316        O332   1.262       .  A
N318        O329   1.262       .  A
N318        O330   1.262       .  A
C320        C321   1.400       .  A
C320        N325   1.431       .  S
C321        C322   1.405       .  A
C321        H326   1.082       .  S
C322        C323   1.413       .  A
C323        C324   1.401       .  A
C323        N327   1.428       .  S
C324        H328   1.082       .  S
N325        O335   1.262       .  A
N325        O336   1.262       .  A
N327        O333   1.262       .  A
N327        O334   1.261       .  A
C337        C338   1.402       .  A
C337        C342   1.401       .  A
C337        H347   1.082   1_565  S
C338        C343   1.482   1_665  S
C338        C339   1.406       .  A
C339        C340   1.401       .  A
C339        N344   1.429   1_655  S
C340        C341   1.409       .  A
C340        H345   1.082       .  S
C341        C342   1.414       .  A
C342        N346   1.428       .  S
C343        C348   1.406       .  A
C343        C352   1.403       .  A
N344        O359   1.262       .  A
N344        O360   1.262       .  A
N346        O357   1.262       .  A
N346        O358   1.262       .  A
C348        C349   1.397       .  A
C348        N353   1.429       .  S
C349        C350   1.406       .  A
C349        H354   1.082       .  S
C350        C351   1.417       .  A
C351        C352   1.405       .  A
C351        N355   1.429       .  S
C352        H356   1.082   1_545  S
N353        O363   1.262   1_455  A
N353        O364   1.262       .  A
N355        O361   1.261       .  A
N355        O362   1.262       .  A
C365        C366   1.401       .  A
C365        C370   1.402       .  A
C365        H375   1.083       .  S
C366        C371   1.484       .  S
C366        C367   1.410       .  A
C367        C368   1.403       .  A
C367        N372   1.430       .  S
C368        C369   1.406       .  A
C368        H373   1.082       .  S
C369        C370   1.415       .  A
C370        N374   1.429       .  S
C371        C376   1.409       .  A
C371        C380   1.402       .  A
N372        O387   1.262       .  A
N372        O388   1.262       .  A
N374        O385   1.262       .  A
N374        O386   1.262       .  A
C376        C377   1.402       .  A
C376        N381   1.429       .  S
C377        C378   1.406       .  A
C377        H382   1.082       .  S
C378        C379   1.412       .  A
C379        C380   1.402       .  A
C379        N383   1.427       .  S
C380        H384   1.082       .  S
N381        O391   1.262       .  A
N381        O392   1.262       .  A
N383        O389   1.261       .  A
N383        O390   1.262       .  A
C393        C394   1.402       .  A
C393        C398   1.401       .  A
C393        H403   1.082       .  S
C394        C399   1.488       .  S
C394        C395   1.412       .  A
C395        C396   1.403       .  A
C395        N400   1.431       .  S
C396        C397   1.406       .  A
C396        H401   1.082       .  S
C397        C398   1.414       .  A
C398        N402   1.429       .  S
C399        C404   1.411       .  A
C399        C408   1.406       .  A
N400        O415   1.262       .  A
N400        O416   1.262       .  A
N402        O413   1.262       .  A
N402        O414   1.262       .  A
C404        C405   1.399       .  A
C404        N409   1.432       .  S
C405        C406   1.406       .  A
C405        H410   1.082       .  S
C406        C407   1.411       .  A
C407        C408   1.405       .  A
C407        N411   1.428       .  S
C408        H412   1.082       .  S
N409        O419   1.262       .  A
N409        O420   1.262       .  A
N411        O417   1.262       .  A
N411        O418   1.262       .  A
