geometry optimzed in LAMMPS
_audit_creation_date              2020-12-01 
_audit_creation_method            'lammps2cif' 
_symmetry_space_group_name_H-M    'P1' 
_symmetry_Int_Tables_number       1 
_symmetry_cell_setting            triclinic 
loop_ 
_symmetry_equiv_pos_as_xyz 
  x,y,z 
_cell_length_a                    25.05190101 
_cell_length_b                    23.287647476703597 
_cell_length_c                    23.968524504060788 
_cell_angle_alpha                 90.51433267679207 
_cell_angle_beta                  89.20791010344954 
_cell_angle_gamma                 88.59434235641588 
loop_ 
_atom_site_label 
_atom_site_type_symbol 
_atom_site_fract_x 
_atom_site_fract_y 
_atom_site_fract_z 
_atom_site_charge 
N1          N  0.05417978  0.06625395  0.10966036    -0.04600
N2          N  0.09474006  0.07597304  0.14261852    -0.56700
N3          N  0.92929826  0.09821237  0.06965184    -0.04300
N4          N  0.88704273  0.13272665  0.07566230    -0.58900
N5          N  0.93123017  0.06088886  0.11042233    -0.03900
N6          N  0.89037128  0.06910542  0.14512394    -0.56700
N7          N  0.05252307  0.10373689  0.06902154    -0.03600
N8          N  0.09195395  0.13995452  0.07334497    -0.59200
C9          C  0.11798481  0.12155134  0.11902433     0.97600
C10         C  0.86292436  0.11340396  0.12232702     0.97300
N11         N  0.93538598  0.04958796  0.90212789    -0.04800
N12         N  0.89769565  0.05632485  0.86462935    -0.57300
N13         N  0.05347940  0.09779493  0.93868729    -0.02900
N14         N  0.08681314  0.13871624  0.92582464    -0.58600
N15         N  0.05730816  0.05561561  0.90187652    -0.04800
N16         N  0.09324455  0.06697878  0.86294839    -0.57600
N17         N  0.93195847  0.09103665  0.93972824    -0.02600
N18         N  0.89202773  0.12680591  0.92881906    -0.58700
Mn19       Mn  0.99167812  0.09965105  0.00446241     1.18400
C20         C  0.87066695  0.10405858  0.88257486     0.99600
C21         C  0.11137414  0.11863332  0.87891100     1.00300
N22         N  0.93967286  0.92786056  0.11764351    -0.04900
N23         N  0.90169230  0.91943517  0.15508934    -0.61200
N24         N  0.06397401  0.89137309  0.07868111    -0.03700
N25         N  0.10765876  0.85957134  0.08464672    -0.61800
N26         N  0.06211731  0.93357227  0.11546482    -0.04400
N27         N  0.10444449  0.93132461  0.14761714    -0.61400
N28         N  0.94146254  0.88607077  0.08035064    -0.03300
N29         N  0.90485783  0.84799336  0.09166278    -0.62100
Mn30       Mn  0.99671082  0.99736228  0.11547052     1.10700
C31         C  0.88043871  0.86977095  0.13800487     1.00900
C32         C  0.13256300  0.88546303  0.12713599     1.00900
N33         N  0.06588146  0.91978823  0.91026932    -0.04400
N34         N  0.10622178  0.90835872  0.87561846    -0.59700
N35         N  0.94410157  0.87787549  0.94791232    -0.03700
N36         N  0.91040254  0.83672387  0.93658749    -0.56500
N37         N  0.94419346  0.91589032  0.90762488    -0.05000
N38         N  0.91054085  0.90197001  0.86839212    -0.59300
N39         N  0.06554643  0.88219101  0.95087910    -0.04000
N40         N  0.10550641  0.84470949  0.94519739    -0.56500
Mn41       Mn  0.00100222  0.98507428  0.90374726     1.20200
Mn42       Mn  0.00326733  0.88241158  0.01476637     1.10100
Cl43       Cl  0.99799399  0.99110753  0.00950332    -0.84500
C44         C  0.13066156  0.86201488  0.89862222     0.97900
C45         C  0.88972525  0.85301801  0.88717806     0.97700
C46         C  0.69984327  0.71837073  0.78348136     0.88000
C47         C  0.73320293  0.66933723  0.75638819    -0.52200
C48         C  0.77900227  0.68643430  0.73050006     0.10900
C49         C  0.78622157  0.75196716  0.73249117     0.21900
C50         C  0.73899235  0.74860551  0.82160673    -0.53000
C51         C  0.78351390  0.76639225  0.79506046     0.11000
C52         C  0.68878184  0.76096048  0.73594833    -0.52500
C53         C  0.73424001  0.77858133  0.70895634     0.11600
H54         H  0.72360992  0.62437377  0.76117708     0.16100
H55         H  0.82309931  0.76709710  0.71177842     0.01800
H56         H  0.73264253  0.75481799  0.86607526     0.16400
H57         H  0.64884130  0.77508034  0.72448135     0.16200
C58         C  0.68352114  0.72703174  0.21933574     0.88000
C59         C  0.72059980  0.76646774  0.18697567    -0.52200
C60         C  0.76481057  0.78054784  0.21545649     0.10900
C61         C  0.76849050  0.75472092  0.27378304     0.21900
C62         C  0.71893164  0.67503640  0.23560961    -0.53000
C63         C  0.76388262  0.68945069  0.26405985     0.11000
C64         C  0.67131126  0.75898153  0.27443966    -0.52500
C65         C  0.71599905  0.77391228  0.30278924     0.11600
H66         H  0.71274778  0.78165969  0.14508019     0.16100
H67         H  0.80448354  0.76861069  0.29603673     0.01800
H68         H  0.71011256  0.63110724  0.22408778     0.16400
H69         H  0.63101055  0.76969702  0.28891180     0.16200
N70         N  0.57703891  0.69224805  0.99483580    -0.35100
N71         N  0.49741914  0.69572060  0.08259421    -0.55700
N72         N  0.41313772  0.69113625  0.99914865    -0.35100
N73         N  0.49251611  0.69620785  0.91159725    -0.55700
C74         C  0.60671768  0.70253749  0.04047800     0.28500
C75         C  0.60292576  0.71473993  0.95038819     0.28500
C76         C  0.38584004  0.71293399  0.04403871     0.28500
C77         C  0.38285183  0.70100802  0.95368218     0.28500
C78         C  0.53995816  0.67972822  0.11330581     0.37100
C79         C  0.45385074  0.69090998  0.11575487     0.37100
C80         C  0.53649780  0.69100592  0.87867190     0.37100
C81         C  0.45115319  0.67833992  0.88097354     0.37100
C82         C  0.65256249  0.73072892  0.02476603    -0.20400
C83         C  0.64986766  0.73897320  0.96814372    -0.20400
C84         C  0.33728154  0.73615444  0.02684196    -0.20400
C85         C  0.33529039  0.72834534  0.96992709    -0.20400
C86         C  0.52314746  0.66335456  0.16604233    -0.21400
C87         C  0.46875266  0.67221925  0.16817419    -0.21400
C88         C  0.52322840  0.67007740  0.82657026    -0.21400
C89         C  0.46932776  0.66035865  0.82857259    -0.21400
C90         C  0.59350188  0.68705973  0.09587452    -0.16800
C91         C  0.58687689  0.71077643  0.89400766    -0.16800
C92         C  0.39704435  0.68560019  0.89803799    -0.16800
C93         C  0.40206519  0.70915197  0.10032828    -0.16800
H94         H  0.68416935  0.74512906  0.05140353     0.16100
H95         H  0.67930451  0.76046373  0.94319318     0.16100
H96         H  0.30609188  0.75610608  0.05259696     0.16100
H97         H  0.30281781  0.74211020  0.94347113     0.16100
H98         H  0.54745442  0.64838634  0.20017861     0.14400
H99         H  0.44356007  0.66564225  0.20439496     0.14400
H100        H  0.54936879  0.66253044  0.79084624     0.14400
H101        H  0.44606167  0.64384838  0.79457045     0.14400
H102        H  0.54216433  0.66897697  0.99402241     0.27700
H103        H  0.44941278  0.66848669  0.99954038     0.27700
C104        C  0.79363653  0.30000499  0.72978559     0.88000
C105        C  0.76436511  0.26490150  0.68601267    -0.52200
C106        C  0.73261543  0.22360340  0.70821702     0.10900
C107        C  0.73132379  0.22311775  0.77214880     0.21900
C108        C  0.74900880  0.32565652  0.76790806    -0.53000
C109        C  0.71671686  0.28516158  0.79077082     0.11000
C110        C  0.82269199  0.25486636  0.76542283    -0.55300
C111        C  0.78982878  0.21517820  0.78749166     0.11600
H112        H  0.77036471  0.27067959  0.64150182     0.16100
H113        H  0.70533698  0.18952588  0.78954990     0.01800
H114        H  0.74440064  0.37125222  0.77718358     0.16400
H115        H  0.86548753  0.25403120  0.77221471     0.16200
N116        N  0.68448832  0.00097081  0.41527191    -0.35100
N117        N  0.70015800  0.09080816  0.49487992    -0.55700
N118        N  0.69985552  0.00644978  0.58705449    -0.35100
N119        N  0.69484019  0.91460154  0.50588553    -0.55700
C120        C  0.69577212  0.04495261  0.38052327     0.28500
C121        C  0.69202674  0.95163482  0.38594738     0.28500
C122        C  0.71824062  0.05373832  0.61287171     0.28500
C123        C  0.71259507  0.96065024  0.61916105     0.28500
C124        C  0.68679527  0.12316357  0.45043570     0.37100
C125        C  0.69517514  0.12555183  0.53993235     0.37100
C126        C  0.68078336  0.88046368  0.46291838     0.37100
C127        C  0.68877439  0.88334668  0.55288040     0.37100
C128        C  0.71003206  0.02307941  0.32828846    -0.20400
C129        C  0.70743692  0.96427099  0.33162421    -0.20400
C130        C  0.74244823  0.03790056  0.66236283    -0.20400
C131        C  0.73839855  0.97917211  0.66656687    -0.20400
C132        C  0.67258668  0.17852240  0.46748806    -0.21400
C133        C  0.67858377  0.18022896  0.52423599    -0.21400
C134        C  0.66647737  0.82707875  0.48260618    -0.21400
C135        C  0.67150614  0.82893069  0.53960639    -0.21400
C136        C  0.69230271  0.10420758  0.39451297    -0.16800
C137        C  0.68320685  0.89560288  0.40590501    -0.16800
C138        C  0.70044422  0.90284079  0.60734733    -0.16800
C139        C  0.71213131  0.11083961  0.59370125    -0.16800
H140        H  0.72133815  0.04682320  0.29154329     0.16100
H141        H  0.71628088  0.93417026  0.29787173     0.16100
H142        H  0.76091179  0.06570959  0.69252105     0.16100
H143        H  0.75344196  0.95297748  0.70024941     0.16100
H144        H  0.66021169  0.21423263  0.44172338     0.14400
H145        H  0.67226583  0.21759652  0.55092682     0.14400
H146        H  0.65377718  0.79053617  0.45840626     0.14400
H147        H  0.66339175  0.79419698  0.56795157     0.14400
H148        H  0.66994889  0.00388433  0.45597949     0.27700
H149        H  0.67782941  0.00601195  0.55067686     0.27700
C150        C  0.78371386  0.31560540  0.26400124     0.88000
C151        C  0.80828312  0.27134259  0.22304816    -0.52200
C152        C  0.77696133  0.22549861  0.21392419     0.10900
C153        C  0.72358535  0.22762665  0.24590698     0.21900
C154        C  0.72925689  0.33174388  0.23934336    -0.53000
C155        C  0.69794512  0.28558868  0.22892514     0.11000
C156        C  0.77068527  0.28146796  0.31681522    -0.52500
C157        C  0.73953590  0.23482336  0.30764308     0.11600
H158        H  0.84739424  0.27552713  0.20349079     0.16100
H159        H  0.69864086  0.19020632  0.23648284     0.01800
H160        H  0.71768818  0.37551935  0.22886078     0.16400
H161        H  0.78654570  0.29201345  0.35749310     0.16200
N162        N  0.42931074  0.29825940  0.00424582    -0.35100
N163        N  0.50563478  0.31794515  0.09192101    -0.55700
N164        N  0.59339385  0.30184091  0.00978156    -0.35100
N165        N  0.51711803  0.27537633  0.92388025    -0.55700
C166        C  0.39593407  0.30084510  0.04927610     0.28500
C167        C  0.40218773  0.27491806  0.96153257     0.28500
C168        C  0.62048579  0.30003613  0.05823007     0.28500
C169        C  0.62649847  0.28036714  0.96906693     0.28500
C170        C  0.46063029  0.33433431  0.12020768     0.37100
C171        C  0.54712825  0.33240407  0.12412036     0.37100
C172        C  0.47552677  0.26920707  0.88927549     0.37100
C173        C  0.56165007  0.27515379  0.89138029     0.37100
C174        C  0.34656886  0.28023977  0.03435017    -0.20400
C175        C  0.35068370  0.26352317  0.97940215    -0.20400
C176        C  0.67166976  0.27783693  0.04800232    -0.20400
C177        C  0.67551697  0.26568387  0.99183448    -0.20400
C178        C  0.47363620  0.35891083  0.17096194    -0.21400
C179        C  0.52847217  0.35772190  0.17342430    -0.21400
C180        C  0.49368542  0.26424700  0.83453190    -0.21400
C181        C  0.54820560  0.26800883  0.83582355    -0.21400
C182        C  0.40815404  0.32278738  0.10299551    -0.16800
C183        C  0.42159514  0.26522672  0.90628933    -0.16800
C184        C  0.61439586  0.27556671  0.91165118    -0.16800
C185        C  0.60141293  0.31994823  0.11109554    -0.16800
H186        H  0.31089981  0.27747794  0.06001770     0.16100
H187        H  0.31901367  0.24524155  0.95540881     0.16100
H188        H  0.70316975  0.27113850  0.07790452     0.16100
H189        H  0.71052925  0.24790157  0.97038411     0.16100
H190        H  0.44646962  0.37516326  0.20320857     0.14400
H191        H  0.55189863  0.37312851  0.20782630     0.14400
H192        H  0.47016995  0.25786176  0.79753582     0.14400
H193        H  0.57476601  0.26427534  0.79994125     0.14400
H194        H  0.46758740  0.31360898  0.00207885     0.27700
H195        H  0.55551937  0.31952834  0.00440941     0.27700
C196        C  0.26823210  0.78432298  0.70010128     0.88000
C197        C  0.23341131  0.73318616  0.68671776    -0.52200
C198        C  0.22372825  0.69867223  0.73141709     0.10900
C199        C  0.25157866  0.71827857  0.78541078     0.21900
C200        C  0.24085810  0.81508118  0.74972678    -0.53000
C201        C  0.23181719  0.78061994  0.79378942     0.11000
C202        C  0.31953057  0.75816946  0.72394492    -0.52500
C203        C  0.31147319  0.72465450  0.76981043     0.11600
H204        H  0.21716990  0.72599099  0.64556230     0.16100
H205        H  0.24299019  0.69077307  0.82178893     0.01800
H206        H  0.22860475  0.86017500  0.74968236     0.16400
H207        H  0.35900159  0.76988398  0.70930707     0.16200
N208        N  0.00709671  0.59186856  0.68173669    -0.35100
N209        N  0.92538392  0.50666455  0.69238427    -0.55700
N210        N  0.00630846  0.41506671  0.69984217    -0.35100
N211        N  0.08883259  0.50092547  0.69888572    -0.55700
C212        C  0.96268963  0.62550483  0.69005569     0.28500
C213        C  0.04956851  0.62293472  0.69693586     0.28500
C214        C  0.96260252  0.38853753  0.71995825     0.28500
C215        C  0.04965056  0.38334069  0.71479207     0.28500
C216        C  0.89628356  0.55097465  0.67197800     0.37100
C217        C  0.89508495  0.45979700  0.68799139     0.37100
C218        C  0.11982039  0.54602570  0.68665369     0.37100
C219        C  0.11930664  0.45289708  0.68947515     0.37100
C220        C  0.97725753  0.67890597  0.70998267    -0.20400
C221        C  0.03204176  0.67731609  0.71419638    -0.20400
C222        C  0.97844243  0.33869042  0.74706380    -0.20400
C223        C  0.03333468  0.33518887  0.74343933    -0.20400
C224        C  0.84768963  0.53182830  0.65311427    -0.21400
C225        C  0.84632791  0.47428032  0.66472622    -0.21400
C226        C  0.17017393  0.52670064  0.66944448    -0.21400
C227        C  0.16969985  0.46770652  0.67067944    -0.21400
C228        C  0.90960009  0.60911502  0.67963370    -0.16800
C229        C  0.10381205  0.60437898  0.69342473    -0.16800
C230        C  0.10339005  0.39643342  0.70254219    -0.16800
C231        C  0.90888651  0.40657026  0.71176569    -0.16800
H232        H  0.95124774  0.71516235  0.72096856     0.16100
H233        H  0.05618265  0.71216099  0.72881085     0.16100
H234        H  0.95315981  0.30758106  0.76680213     0.16100
H235        H  0.05835699  0.30137339  0.76063776     0.16100
H236        H  0.81541186  0.55730275  0.63564242     0.14400
H237        H  0.81286833  0.44689595  0.65751425     0.14400
H238        H  0.20365407  0.55237765  0.65697729     0.14400
H239        H  0.20292280  0.43908340  0.65961870     0.14400
H240        H  0.00858541  0.55072515  0.66451060     0.27700
H241        H  0.00676484  0.45165706  0.67536815     0.27700
C242        C  0.30302894  0.27159506  0.80589875     0.88000
C243        C  0.26969833  0.32357510  0.78710733    -0.52200
C244        C  0.22652638  0.31026640  0.75596017     0.10900
C245        C  0.22113001  0.24484664  0.74587602     0.21900
C246        C  0.26323780  0.23314972  0.83602412    -0.53000
C247        C  0.22077654  0.21906927  0.80449416     0.11000
C248        C  0.31837029  0.23900545  0.75190057    -0.52500
C249        C  0.27551503  0.22368384  0.72081219     0.11600
H250        H  0.27851055  0.36741038  0.79910049     0.16100
H251        H  0.18583208  0.23319546  0.72139891     0.01800
H252        H  0.26843462  0.21767663  0.87821788     0.16400
H253        H  0.35923589  0.22641062  0.74089330     0.16200
N254        N  0.25170585  0.00563895  0.58437831    -0.35100
N255        N  0.25573245  0.92124851  0.49240483    -0.55700
N256        N  0.27120138  0.01248068  0.41261695    -0.35100
N257        N  0.26389034  0.09690880  0.50558765    -0.55700
C258        C  0.23610420  0.95816287  0.61147971     0.28500
C259        C  0.24055858  0.05138064  0.61827198     0.28500
C260        C  0.25804623  0.96847291  0.37831850     0.28500
C261        C  0.26099802  0.06197649  0.38499330     0.28500
C262        C  0.25334419  0.88489059  0.53589152     0.37100
C263        C  0.26276273  0.88819388  0.44612503     0.37100
C264        C  0.26589019  0.12899422  0.55282147     0.37100
C265        C  0.27392050  0.13247339  0.46284300     0.37100
C266        C  0.21562137  0.97368882  0.66369299    -0.20400
C267        C  0.21847844  0.03236734  0.66801942    -0.20400
C268        C  0.24074218  0.99033811  0.32789422    -0.20400
C269        C  0.24216192  0.04914255  0.33225194    -0.20400
C270        C  0.25809758  0.82855163  0.51723562    -0.21400
C271        C  0.26376443  0.83054510  0.46061202    -0.21400
C272        C  0.27702567  0.18539534  0.53979404    -0.21400
C273        C  0.28252344  0.18747757  0.48297327    -0.21400
C274        C  0.24221679  0.90097294  0.59172940    -0.16800
C275        C  0.25175055  0.10945239  0.60661889    -0.16800
C276        C  0.26778567  0.11849183  0.40591508    -0.16800
C277        C  0.26167972  0.90910670  0.39087816    -0.16800
H278        H  0.20034256  0.94574242  0.69564907     0.16100
H279        H  0.20606320  0.05780541  0.70411989     0.16100
H280        H  0.22739211  0.96661689  0.29187994     0.16100
H281        H  0.22981425  0.07892431  0.30024923     0.16100
H282        H  0.25572732  0.78972303  0.54152641     0.14400
H283        H  0.26613945  0.79307952  0.43384796     0.14400
H284        H  0.27888152  0.22203958  0.56763578     0.14400
H285        H  0.28971553  0.22577953  0.45900956     0.14400
H286        H  0.27125618  0.00606563  0.54606802     0.27700
H287        H  0.28761148  0.00906938  0.45204591     0.27700
C288        C  0.21536387  0.31219406  0.25890844     0.88000
C289        C  0.23852576  0.27441645  0.30504462    -0.52200
C290        C  0.26673134  0.22704552  0.28593364     0.10900
C291        C  0.27149817  0.22361229  0.22217671     0.21900
C292        C  0.26426971  0.32863417  0.22307662    -0.53000
C293        C  0.29400210  0.28164598  0.20406786     0.11000
C294        C  0.18416792  0.27088603  0.22229361    -0.52500
C295        C  0.21368007  0.22540321  0.20268391     0.11600
H296        H  0.23117969  0.28348721  0.34901013     0.16100
H297        H  0.29461892  0.18527728  0.20652897     0.01800
H298        H  0.27374151  0.37272367  0.21368255     0.16400
H299        H  0.14202087  0.27649912  0.21321092     0.16200
C300        C  0.21467116  0.69781220  0.27136114     0.88000
C301        C  0.18953853  0.74111971  0.23143475    -0.52200
C302        C  0.22401309  0.78106710  0.21296666     0.10900
C303        C  0.28072830  0.77419300  0.23490991     0.21900
C304        C  0.26301194  0.67191141  0.23928150    -0.53000
C305        C  0.29729288  0.71158305  0.21921404     0.11000
C306        C  0.23845660  0.73430308  0.31794365    -0.52500
C307        C  0.27266093  0.77483034  0.29860102     0.11600
H308        H  0.14771283  0.74109947  0.21989468     0.16100
H309        H  0.30800326  0.80780225  0.22004467     0.01800
H310        H  0.26828809  0.62621130  0.23067095     0.16400
H311        H  0.22621877  0.73139012  0.36143463     0.16200
N312        N  0.00263130  0.42948111  0.29317724    -0.35100
N313        N  0.91529729  0.51246772  0.30554360    -0.55700
N314        N  0.99107054  0.60469146  0.32627242    -0.35100
N315        N  0.07732700  0.52154818  0.30469804    -0.55700
C316        C  0.96034441  0.39873650  0.27711540     0.28500
C317        C  0.04672848  0.40648293  0.26734122     0.28500
C318        C  0.94640866  0.63478774  0.31223121     0.28500
C319        C  0.03333666  0.63869272  0.31679619     0.28500
C320        C  0.88908784  0.46344241  0.31539978     0.37100
C321        C  0.88290581  0.55598292  0.32400095     0.37100
C322        C  0.11021025  0.47492000  0.30574599     0.37100
C323        C  0.10298470  0.56413303  0.33053095     0.37100
C324        C  0.97767767  0.35487002  0.24125108    -0.20400
C325        C  0.03219424  0.36006360  0.23467724    -0.20400
C326        C  0.96035983  0.68909447  0.29462522    -0.20400
C327        C  0.01522356  0.69156290  0.29751336    -0.20400
C328        C  0.84027583  0.47597831  0.34134943    -0.21400
C329        C  0.83601814  0.53476430  0.34593522    -0.21400
C330        C  0.15723109  0.48785853  0.33236706    -0.21400
C331        C  0.15183880  0.54402046  0.34978664    -0.21400
C332        C  0.90704705  0.40868009  0.29582162    -0.16800
C333        C  0.09972824  0.42404242  0.27639966    -0.16800
C334        C  0.08750470  0.62237635  0.32519420    -0.16800
C335        C  0.89358793  0.61460119  0.31631902    -0.16800
H336        H  0.95353534  0.32278748  0.22151058     0.16100
H337        H  0.05808522  0.33219054  0.20945714     0.16100
H338        H  0.93395085  0.72321766  0.28036533     0.16100
H339        H  0.03889942  0.72784786  0.28568266     0.16100
H340        H  0.81038338  0.44616534  0.35483924     0.14400
H341        H  0.80233499  0.55915548  0.36335429     0.14400
H342        H  0.19227366  0.46072388  0.33797626     0.14400
H343        H  0.18205667  0.56854039  0.37049008     0.14400
H344        H  0.00143130  0.46251234  0.32272241     0.27700
H345        H  0.99256540  0.56354949  0.34292720     0.27700
C346        C  0.17548612  0.65349376  0.28920851    -0.14900
C347        C  0.12986760  0.66605888  0.31795509    -0.30100
H348        H  0.18268606  0.61042593  0.27274560     0.14100
H349        H  0.12143611  0.71020538  0.33090359     0.14700
C350        C  0.17974089  0.36018626  0.28259209    -0.14900
C351        C  0.14494930  0.38982253  0.25111790    -0.30100
H352        H  0.17630917  0.36450309  0.32768375     0.14100
H353        H  0.14500583  0.38262795  0.20627054     0.14700
C354        C  0.25417572  0.86682651  0.34481944    -0.14900
C355        C  0.28896823  0.82315327  0.33403508    -0.30100
H356        H  0.21703761  0.86935326  0.32191833     0.14100
H357        H  0.32639567  0.81965352  0.35620808     0.14700
C358        C  0.25602322  0.16775643  0.36914716    -0.14900
C359        C  0.28338275  0.17873874  0.32207668    -0.30100
H360        H  0.22308010  0.19589385  0.38262141     0.14100
H361        H  0.31504630  0.14928830  0.30771969     0.14700
C362        C  0.24286496  0.15241338  0.65242091    -0.14900
C363        C  0.28245004  0.18457806  0.67186845    -0.30100
H364        H  0.20401622  0.15374640  0.67289456     0.14100
H365        H  0.32219770  0.17910953  0.65350893     0.14700
C366        C  0.18757340  0.35652293  0.74074021    -0.14900
C367        C  0.14444957  0.34931247  0.70896887    -0.30100
H368        H  0.19360199  0.39866732  0.75913029     0.14100
H369        H  0.13579874  0.30724061  0.69217059     0.14700
C370        C  0.27601939  0.82440795  0.65218119    -0.14900
C371        C  0.23427487  0.85471475  0.63231286    -0.30100
H372        H  0.31603782  0.83170913  0.63608836     0.14100
H373        H  0.19442738  0.84918961  0.64966637     0.14700
C374        C  0.18596597  0.65021648  0.72954473    -0.14900
C375        C  0.14487399  0.64962239  0.69368576    -0.30100
H376        H  0.18983498  0.61657994  0.76042085     0.14100
H377        H  0.13772041  0.68615277  0.66675025     0.14700
C378        C  0.34205097  0.28230816  0.16699947    -0.14900
C379        C  0.36384415  0.32931014  0.14500904    -0.30100
H380        H  0.35913956  0.24065317  0.15470404     0.14100
H381        H  0.34937789  0.37210356  0.15656852     0.14700
C382        C  0.34906542  0.28790591  0.84208246    -0.14900
C383        C  0.38247561  0.24847450  0.86368102    -0.30100
H384        H  0.35346599  0.33278672  0.85364544     0.14100
H385        H  0.37937724  0.20337411  0.85253498     0.14700
C386        C  0.86935345  0.36012427  0.29200594    -0.14900
C387        C  0.81932075  0.36630848  0.27260200    -0.30100
H388        H  0.88459812  0.31721267  0.30128875     0.14100
H389        H  0.80475517  0.40835498  0.25966646     0.14700
C390        C  0.64180927  0.32756917  0.15501564    -0.14900
C391        C  0.64848180  0.28865457  0.19561114    -0.30100
H392        H  0.67194260  0.35939358  0.14743306     0.14100
H393        H  0.62108055  0.25333670  0.19862066     0.14700
C394        C  0.72915166  0.19307425  0.35308343    -0.14900
C395        C  0.69732999  0.14732729  0.34866948    -0.30100
H396        H  0.75058342  0.19939169  0.39166994     0.14100
H397        H  0.67715041  0.13875648  0.30991848     0.14700
C398        C  0.86572909  0.37147229  0.73595981    -0.14900
C399        C  0.83152137  0.34246100  0.70441200    -0.30100
H400        H  0.86538757  0.36532883  0.78085408     0.14100
H401        H  0.83404968  0.34606833  0.65928292     0.14700
C402        C  0.67345824  0.29973860  0.83172297    -0.14900
C403        C  0.65907671  0.26269486  0.87164943    -0.30100
H404        H  0.65384642  0.34180926  0.82991157     0.14100
H405        H  0.68124351  0.22248212  0.87662638     0.14700
C406        C  0.73271794  0.15840929  0.62741947    -0.14900
C407        C  0.70938078  0.17677530  0.67511626    -0.30100
H408        H  0.76743126  0.17958548  0.61057568     0.14100
H409        H  0.67561934  0.15405365  0.69223017     0.14700
C410        C  0.34149694  0.69368808  0.18065374    -0.14900
C411        C  0.36381925  0.72972134  0.14443339    -0.30100
H412        H  0.35266677  0.64830592  0.17831248     0.14100
H413        H  0.34995756  0.77412247  0.14255798     0.14700
C414        C  0.35700199  0.71257788  0.80737583    -0.14900
C415        C  0.35328918  0.68474173  0.85615434    -0.30100
H416        H  0.39422280  0.73306693  0.79675780     0.14100
H417        H  0.31559341  0.66689849  0.86907584     0.14700
C418        C  0.71546876  0.81049407  0.35346397    -0.14900
C419        C  0.67680563  0.85025483  0.36322425    -0.30100
H420        H  0.75070457  0.80980465  0.37941847     0.14100
H421        H  0.64421008  0.85575020  0.33422690     0.14700
C422        C  0.84824621  0.65677682  0.31015496    -0.14900
C423        C  0.80587833  0.64581352  0.27790674    -0.30100
H424        H  0.85238954  0.69869812  0.32922318     0.14100
H425        H  0.80301462  0.60369956  0.25845386     0.14700
C426        C  0.63439778  0.71404106  0.18635491    -0.14900
C427        C  0.63769960  0.68605717  0.13701798    -0.30100
H428        H  0.59686573  0.73421839  0.19994065     0.14100
H429        H  0.67656453  0.66953336  0.12281833     0.14700
C430        C  0.62323463  0.73278637  0.85003042    -0.14900
C431        C  0.65180321  0.69750647  0.81580724    -0.30100
H432        H  0.63264889  0.77806785  0.85175925     0.14100
H433        H  0.64437763  0.65172971  0.81659783     0.14700
C434        C  0.73483451  0.81884995  0.66089791    -0.14900
C435        C  0.69842993  0.86178018  0.65487229    -0.30100
H436        H  0.76781176  0.81480625  0.63110423     0.14100
H437        H  0.66809885  0.86953875  0.68703342     0.14700
C438        C  0.82137490  0.64332949  0.71572786    -0.14900
C439        C  0.86566422  0.65365515  0.68530342    -0.30100
H440        H  0.81695944  0.60123748  0.73415351     0.14100
H441        H  0.87197042  0.69606484  0.66849788     0.14700
C442        C  0.85454649  0.81966561  0.85466072    -0.11800
C443        C  0.82419367  0.79472643  0.82534982    -0.13300
C444        C  0.83344441  0.13529833  0.84945318    -0.11800
C445        C  0.80965574  0.16926672  0.82122833    -0.13300
C446        C  0.17197245  0.82886405  0.87137984    -0.11800
C447        C  0.20218128  0.80243656  0.84101023    -0.13300
C448        C  0.80534776  0.81495674  0.19116316    -0.11800
C449        C  0.83930009  0.84134281  0.16767487    -0.13300
C450        C  0.20551532  0.82759772  0.17951430    -0.11800
C451        C  0.17719670  0.85978069  0.15406963    -0.13300
C452        C  0.79531367  0.17869528  0.17895365    -0.11800
C453        C  0.82143262  0.14496727  0.15124574    -0.13300
C454        C  0.18050463  0.18157342  0.82508327    -0.11800
C455        C  0.14880141  0.15112103  0.84749567    -0.13300
C456        C  0.16052522  0.15163199  0.14399339    -0.11800
C457        C  0.18984232  0.18217662  0.16910624    -0.13300
loop_ 
_geom_bond_atom_site_label_1 
_geom_bond_atom_site_label_2 
_geom_bond_distance 
_geom_bond_site_symmetry_2 
_ccdc_geom_bond_type 
N1            N2   1.318       .  A
N1            N7   1.314       .  A
N1          Mn30   2.186   1_445  S
N2            C9   1.348       .  A
N3            N5   1.314       .  A
N3            N4   1.319       .  A
N3          Mn19   2.196       .  S
N4           C10   1.350       .  A
N5            N6   1.319       .  A
N5          Mn30   2.187   1_545  S
N6           C10   1.350       .  A
N7            N8   1.319       .  A
N7          Mn19   2.190   1_455  S
N8            C9   1.350       .  A
C9          C456   1.425       .  S
C10         C453   1.426       .  S
N11          N17   1.315       .  A
N11          N12   1.320       .  A
N11         Mn41   2.201   1_645  S
N12          C20   1.351       .  A
N13          N14   1.318       .  A
N13          N15   1.315       .  A
N13         Mn19   2.194   1_456  S
N14          C21   1.349       .  A
N15          N16   1.321       .  A
N15         Mn41   2.192   1_545  S
N16          C21   1.350       .  A
N17          N18   1.316       .  A
N17         Mn19   2.182   1_556  S
N18          C20   1.347       .  A
Mn19        Cl43   2.533   1_545  S
C20         C444   1.424       .  S
C21         C455   1.430       .  S
N22          N23   1.318       .  A
N22          N28   1.315       .  A
N22         Mn30   2.186       .  S
N23          C31   1.348       .  A
N24          N26   1.314       .  A
N24          N25   1.316       .  A
N24         Mn42   2.186       .  S
N25          C32   1.347       .  A
N26          N27   1.320       .  A
N26         Mn30   2.185   1_455  S
N27          C32   1.350       .  A
N28          N29   1.318       .  A
N28         Mn42   2.191   1_655  S
N29          C31   1.349       .  A
Mn30        Cl43   2.542       .  S
C31         C449   1.424       .  S
C32         C451   1.421       .  S
N33          N34   1.320       .  A
N33          N39   1.315       .  A
N33         Mn41   2.206       .  S
N34          C44   1.353       .  A
N35          N36   1.321       .  A
N35          N37   1.316       .  A
N35         Mn42   2.201   1_656  S
N36          C45   1.353       .  A
N37          N38   1.315       .  A
N37         Mn41   2.177   1_655  S
N38          C45   1.344       .  A
N39          N40   1.317       .  A
N39         Mn42   2.171   1_556  S
N40          C44   1.344       .  A
Mn41        Cl43   2.537   1_456  S
Mn42        Cl43   2.536   1_455  S
C44         C446   1.424       .  S
C45         C442   1.424       .  S
C46          C47   1.533       .  S
C46          C52   1.541       .  S
C46          C50   1.530       .  S
C46         C431   1.515       .  S
C47          H54   1.087       .  S
C47          C48   1.366       .  D
C48          C49   1.542       .  S
C48         C438   1.480       .  S
C49          C53   1.544       .  S
C49          C51   1.534       .  S
C49          H55   1.109       .  S
C50          H56   1.083       .  S
C50          C51   1.352       .  D
C51         C443   1.430       .  S
C52          H57   1.085       .  S
C52          C53   1.375       .  D
C53         C434   1.492       .  S
C58          C59   1.531       .  S
C58          C64   1.533       .  S
C58          C62   1.540       .  S
C58         C426   1.507       .  S
C59          H66   1.087       .  S
C59          C60   1.355       .  D
C60          C61   1.530       .  S
C60         C448   1.430       .  S
C61          C65   1.534       .  S
C61          C63   1.543       .  S
C61          H67   1.108       .  S
C62          H68   1.086       .  S
C62          C63   1.372       .  D
C63         C423   1.488       .  S
C64          H69   1.085       .  S
C64          C65   1.368       .  D
C65         C418   1.477       .  S
N70          C75   1.356       .  A
N70          C74   1.354   1_556  A
N70         H102   1.040       .  S
N71          C78   1.350       .  A
N71          C79   1.349       .  A
N72          C77   1.355       .  A
N72          C76   1.355   1_556  A
N72         H103   1.040       .  S
N73          C80   1.349       .  A
N73          C81   1.350       .  A
C74          C82   1.386       .  A
C74          C90   1.416       .  A
C75          C91   1.418       .  A
C75          C83   1.387       .  A
C76          C84   1.388       .  A
C76          C93   1.417       .  A
C77          C92   1.416       .  A
C77          C85   1.386       .  A
C78          C90   1.414       .  A
C78          C86   1.386       .  A
C79          C93   1.410       .  A
C79          C87   1.386       .  A
C80          C88   1.384       .  A
C80          C91   1.407       .  A
C81          C89   1.388       .  A
C81          C92   1.416       .  A
C82          C83   1.375   1_554  A
C82          H94   1.082       .  S
C83          H95   1.079       .  S
C84          C85   1.376   1_554  A
C84          H96   1.082       .  S
C85          H97   1.082       .  S
C86          C87   1.373       .  A
C86          H98   1.082       .  S
C87          H99   1.080       .  S
C88          C89   1.375       .  A
C88         H100   1.081       .  S
C89         H101   1.082       .  S
C90         C427   1.493       .  S
C91         C430   1.486       .  S
C92         C415   1.497       .  S
C93         C411   1.485       .  S
C104        C105   1.530       .  S
C104        C110   1.536       .  S
C104        C108   1.540       .  S
C104        C399   1.513       .  S
C105        H112   1.085       .  S
C105        C106   1.370       .  D
C106        C107   1.532       .  S
C106        C407   1.478       .  S
C107        C111   1.523       .  S
C107        C109   1.542       .  S
C107        H113   1.110       .  S
C108        H114   1.086       .  S
C108        C109   1.371       .  D
C109        C402   1.483       .  S
C110        H115   1.086       .  S
C110        C111   1.359       .  D
C111        C445   1.430       .  S
N116        C121   1.349   1_545  A
N116        C120   1.359       .  A
N116        H148   1.038       .  S
N117        C124   1.351       .  A
N117        C125   1.346       .  A
N118        C123   1.355   1_545  A
N118        C122   1.352       .  A
N118        H149   1.038       .  S
N119        C126   1.351       .  A
N119        C127   1.355       .  A
C120        C128   1.386       .  A
C120        C136   1.417       .  A
C121        C137   1.415       .  A
C121        C129   1.389       .  A
C122        C130   1.388       .  A
C122        C139   1.416       .  A
C123        C138   1.415       .  A
C123        C131   1.386       .  A
C124        C136   1.411       .  A
C124        C132   1.386       .  A
C125        C139   1.405       .  A
C125        C133   1.387       .  A
C126        C134   1.387       .  A
C126        C137   1.415       .  A
C127        C135   1.385       .  A
C127        C138   1.415       .  A
C128        C129   1.376   1_545  A
C128        H140   1.082       .  S
C129        H141   1.083       .  S
C130        C131   1.378   1_545  A
C130        H142   1.082       .  S
C131        H143   1.083       .  S
C132        C133   1.371       .  A
C132        H144   1.082       .  S
C133        H145   1.083       .  S
C134        C135   1.374       .  A
C134        H146   1.082       .  S
C135        H147   1.082       .  S
C136        C395   1.501       .  S
C137        C419   1.477       .  S
C138        C435   1.495       .  S
C139        C406   1.473       .  S
C150        C151   1.529       .  S
C150        C156   1.536       .  S
C150        C154   1.534       .  S
C150        C387   1.512       .  S
C151        H158   1.087       .  S
C151        C152   1.358       .  D
C152        C153   1.532       .  S
C152        C452   1.432       .  S
C153        C157   1.547       .  S
C153        C155   1.541       .  S
C153        H159   1.108       .  S
C154        H160   1.086       .  S
C154        C155   1.369       .  D
C155        C391   1.484       .  S
C156        H161   1.086       .  S
C156        C157   1.371       .  D
C157        C394   1.491       .  S
N162        C167   1.354   1_554  A
N162        C166   1.356       .  A
N162        H194   1.032       .  S
N163        C170   1.353       .  A
N163        C171   1.351       .  A
N164        C169   1.356   1_554  A
N164        C168   1.354       .  A
N164        H195   1.035       .  S
N165        C172   1.350       .  A
N165        C173   1.352       .  A
C166        C174   1.388       .  A
C166        C182   1.421       .  A
C167        C183   1.418       .  A
C167        C175   1.386       .  A
C168        C176   1.389       .  A
C168        C185   1.418       .  A
C169        C184   1.417       .  A
C169        C177   1.387       .  A
C170        C182   1.415       .  A
C170        C178   1.386       .  A
C171        C185   1.414       .  A
C171        C179   1.386       .  A
C172        C180   1.386       .  A
C172        C183   1.411       .  A
C173        C181   1.388       .  A
C173        C184   1.414       .  A
C174        C175   1.372   1_554  A
C174        H186   1.081       .  S
C175        H187   1.080       .  S
C176        C177   1.375   1_554  A
C176        H188   1.083       .  S
C177        H189   1.082       .  S
C178        C179   1.375       .  A
C178        H190   1.082       .  S
C179        H191   1.082       .  S
C180        C181   1.372       .  A
C180        H192   1.083       .  S
C181        H193   1.082       .  S
C182        C379   1.492       .  S
C183        C383   1.482       .  S
C184        C403   1.487       .  S
C185        C390   1.483       .  S
C196        C197   1.528       .  S
C196        C202   1.529       .  S
C196        C200   1.528       .  S
C196        C370   1.500       .  S
C197        H204   1.085       .  S
C197        C198   1.368       .  D
C198        C199   1.549       .  S
C198        C374   1.491       .  S
C199        C203   1.552       .  S
C199        C201   1.533       .  S
C199        H205   1.108       .  S
C200        H206   1.087       .  S
C200        C201   1.352       .  D
C201        C447   1.428       .  S
C202        H207   1.087       .  S
C202        C203   1.369       .  D
C203        C414   1.486       .  S
N208        C213   1.353       .  A
N208        C212   1.356   1_455  A
N208        H240   1.040       .  S
N209        C216   1.348       .  A
N209        C217   1.349       .  A
N210        C215   1.353       .  A
N210        C214   1.355   1_455  A
N210        H241   1.039       .  S
N211        C218   1.353       .  A
N211        C219   1.354       .  A
C212        C220   1.387       .  A
C212        C228   1.418       .  A
C213        C229   1.417       .  A
C213        C221   1.388       .  A
C214        C222   1.387       .  A
C214        C231   1.417       .  A
C215        C230   1.415       .  A
C215        C223   1.387       .  A
C216        C228   1.413       .  A
C216        C224   1.387       .  A
C217        C231   1.406       .  A
C217        C225   1.385       .  A
C218        C226   1.385       .  A
C218        C229   1.415       .  A
C219        C227   1.387       .  A
C219        C230   1.420       .  A
C220        C221   1.377   1_655  A
C220        H232   1.082       .  S
C221        H233   1.082       .  S
C222        C223   1.377   1_655  A
C222        H234   1.082       .  S
C223        H235   1.082       .  S
C224        C225   1.372       .  A
C224        H236   1.082       .  S
C225        H237   1.080       .  S
C226        C227   1.375       .  A
C226        H238   1.082       .  S
C227        H239   1.082       .  S
C228        C439   1.498       .  S
C229        C375   1.490       .  S
C230        C367   1.496       .  S
C231        C398   1.486       .  S
C242        C243   1.528       .  S
C242        C248   1.534       .  S
C242        C246   1.534       .  S
C242        C382   1.507       .  S
C243        H250   1.087       .  S
C243        C244   1.363       .  D
C244        C245   1.550       .  S
C244        C366   1.487       .  S
C245        C249   1.549       .  S
C245        C247   1.533       .  S
C245        H251   1.106       .  S
C246        H252   1.085       .  S
C246        C247   1.358       .  D
C247        C454   1.436       .  S
C248        H253   1.086       .  S
C248        C249   1.368       .  D
C249        C363   1.484       .  S
N254        C259   1.355       .  A
N254        C258   1.351   1_545  A
N254        H286   1.035       .  S
N255        C262   1.350       .  A
N255        C263   1.352       .  A
N256        C261   1.355       .  A
N256        C260   1.358   1_545  A
N256        H287   1.039       .  S
N257        C264   1.353       .  A
N257        C265   1.348       .  A
C258        C266   1.388       .  A
C258        C274   1.413       .  A
C259        C275   1.417       .  A
C259        C267   1.388       .  A
C260        C268   1.387       .  A
C260        C277   1.419       .  A
C261        C276   1.419       .  A
C261        C269   1.388       .  A
C262        C274   1.409       .  A
C262        C270   1.384       .  A
C263        C277   1.415       .  A
C263        C271   1.389       .  A
C264        C272   1.387       .  A
C264        C275   1.415       .  A
C265        C273   1.388       .  A
C265        C276   1.411       .  A
C266        C267   1.373   1_565  A
C266        H278   1.082       .  S
C267        H279   1.082       .  S
C268        C269   1.374   1_565  A
C268        H280   1.082       .  S
C269        H281   1.082       .  S
C270        C271   1.364       .  A
C270        H282   1.082       .  S
C271        H283   1.078       .  S
C272        C273   1.368       .  A
C272        H284   1.081       .  S
C273        H285   1.083       .  S
C274        C371   1.473       .  S
C275        C362   1.489       .  S
C276        C358   1.479       .  S
C277        C354   1.490       .  S
C288        C289   1.531       .  S
C288        C294   1.532       .  S
C288        C292   1.544       .  S
C288        C350   1.514       .  S
C289        H296   1.085       .  S
C289        C290   1.367       .  D
C290        C291   1.532       .  S
C290        C359   1.481       .  S
C291        C295   1.528       .  S
C291        C293   1.541       .  S
C291        H297   1.112       .  S
C292        H298   1.084       .  S
C292        C293   1.379       .  D
C293        C378   1.487       .  S
C294        H299   1.086       .  S
C294        C295   1.354       .  D
C295        C457   1.430       .  S
C300        C301   1.527       .  S
C300        C306   1.533       .  S
C300        C304   1.534       .  S
C300        C346   1.503       .  S
C301        H308   1.087       .  S
C301        C302   1.358       .  D
C302        C303   1.527       .  S
C302        C450   1.426       .  S
C303        C307   1.537       .  S
C303        C305   1.548       .  S
C303        H309   1.109       .  S
C304        H310   1.087       .  S
C304        C305   1.363       .  D
C305        C410   1.482       .  S
C306        H311   1.086       .  S
C306        C307   1.370       .  D
C307        C355   1.473       .  S
N312        C317   1.355       .  A
N312        C316   1.352   1_455  A
N312        H344   1.040       .  S
N313        C320   1.352       .  A
N313        C321   1.350       .  A
N314        C319   1.356   1_655  A
N314        C318   1.354       .  A
N314        H345   1.041       .  S
N315        C322   1.347       .  A
N315        C323   1.346       .  A
C316        C324   1.387       .  A
C316        C332   1.416       .  A
C317        C333   1.418       .  A
C317        C325   1.388       .  A
C318        C326   1.388       .  A
C318        C335   1.418       .  A
C319        C334   1.418       .  A
C319        C327   1.387       .  A
C320        C332   1.416       .  A
C320        C328   1.388       .  A
C321        C335   1.411       .  A
C321        C329   1.384       .  A
C322        C330   1.386       .  A
C322        C333   1.405       .  A
C323        C331   1.386       .  A
C323        C334   1.409       .  A
C324        C325   1.381   1_655  A
C324        H336   1.082       .  S
C325        H337   1.081       .  S
C326        C327   1.380   1_655  A
C326        H338   1.082       .  S
C327        H339   1.082       .  S
C328        C329   1.374       .  A
C328        H340   1.082       .  S
C329        H341   1.082       .  S
C330        C331   1.372       .  A
C330        H342   1.080       .  S
C331        H343   1.083       .  S
C332        C386   1.494       .  S
C333        C351   1.488       .  S
C334        C347   1.497       .  S
C335        C422   1.493       .  S
C346        H348   1.085       .  S
C346        C347   1.351       .  D
C347        H349   1.086       .  S
C350        H352   1.087       .  S
C350        C351   1.343       .  D
C351        H353   1.086       .  S
C354        H356   1.087       .  S
C354        C355   1.344       .  D
C355        H357   1.086       .  S
C358        H360   1.085       .  S
C358        C359   1.342       .  D
C359        H361   1.086       .  S
C362        H364   1.084       .  S
C362        C363   1.343       .  D
C363        H365   1.087       .  S
C366        H368   1.087       .  S
C366        C367   1.343       .  D
C367        H369   1.084       .  S
C370        H372   1.087       .  S
C370        C371   1.342       .  D
C371        H373   1.087       .  S
C374        H376   1.086       .  S
C374        C375   1.350       .  D
C375        H377   1.085       .  S
C378        H380   1.087       .  S
C378        C379   1.344       .  D
C379        H381   1.084       .  S
C382        H384   1.087       .  S
C382        C383   1.340       .  D
C383        H385   1.086       .  S
C386        H388   1.087       .  S
C386        C387   1.348       .  D
C387        H389   1.086       .  S
C390        H392   1.085       .  S
C390        C391   1.345       .  D
C391        H393   1.086       .  S
C394        H396   1.086       .  S
C394        C395   1.350       .  D
C395        H397   1.083       .  S
C398        H400   1.087       .  S
C398        C399   1.342       .  D
C399        H401   1.087       .  S
C402        H404   1.087       .  S
C402        C403   1.345       .  D
C403        H405   1.085       .  S
C406        H408   1.085       .  S
C406        C407   1.339       .  D
C407        H409   1.086       .  S
C410        H412   1.087       .  S
C410        C411   1.339       .  D
C411        H413   1.084       .  S
C414        H416   1.086       .  S
C414        C415   1.345       .  D
C415        H417   1.083       .  S
C418        H420   1.087       .  S
C418        C419   1.340       .  D
C419        H421   1.086       .  S
C422        H424   1.082       .  S
C422        C423   1.350       .  D
C423        H425   1.087       .  S
C426        H428   1.085       .  S
C426        C427   1.346       .  D
C427        H429   1.087       .  S
C430        H432   1.087       .  S
C430        C431   1.343       .  D
C431        H433   1.087       .  S
C434        H436   1.086       .  S
C434        C435   1.347       .  D
C435        H437   1.086       .  S
C438        H440   1.086       .  S
C438        C439   1.347       .  D
C439        H441   1.084       .  S
C442        C443   1.199       .  T
C444        C445   1.198       .  T
C446        C447   1.198       .  T
C448        C449   1.199       .  T
C450        C451   1.196       .  T
C452        C453   1.200       .  T
C454        C455   1.202       .  T
C456        C457   1.199       .  T
