geometry optimzed in LAMMPS
_audit_creation_date              2020-12-01 
_audit_creation_method            'lammps2cif' 
_symmetry_space_group_name_H-M    'P1' 
_symmetry_Int_Tables_number       1 
_symmetry_cell_setting            triclinic 
loop_ 
_symmetry_equiv_pos_as_xyz 
  x,y,z 
_cell_length_a                    51.74717892 
_cell_length_b                    51.80370542469419 
_cell_length_c                    31.764917879040215 
_cell_angle_alpha                 90.06676251254957 
_cell_angle_beta                  89.90828477405019 
_cell_angle_gamma                 120.27442797061201 
loop_ 
_atom_site_label 
_atom_site_type_symbol 
_atom_site_fract_x 
_atom_site_fract_y 
_atom_site_fract_z 
_atom_site_charge 
C1          C  0.25494696  0.49458936  0.71393259     0.80400
N2          N  0.27953525  0.49165835  0.71412408    -0.77900
C3          C  0.29106884  0.48896365  0.75111870     0.82900
N4          N  0.27822064  0.48977883  0.78806065    -0.77800
C5          C  0.25376471  0.49296627  0.78781021     0.83000
N6          N  0.24243417  0.49569733  0.75081948    -0.79500
C7          C  0.26531084  0.46546760  0.21238909     0.80400
N8          N  0.24342321  0.47263423  0.21224941    -0.77900
C9          C  0.23253595  0.47648445  0.24928673     0.82900
N10         N  0.24344041  0.47280203  0.28633875    -0.77800
C11         C  0.26532121  0.46563708  0.28625698     0.83000
N12         N  0.27554926  0.46124797  0.24934021    -0.79500
C13         C  0.24218792  0.22383144  0.28716708     0.80400
N14         N  0.22745499  0.21349654  0.25030686    -0.77900
C15         C  0.24207043  0.22359114  0.21328192     0.82900
N16         N  0.27127526  0.24541871  0.21302838    -0.77800
C17         C  0.28606929  0.25640012  0.24994280     0.83000
N18         N  0.27141814  0.24565020  0.28706702    -0.79500
C19         C  0.27790810  0.23560398  0.78668111     0.80400
N20         N  0.29165649  0.24772366  0.74966433    -0.77900
C21         C  0.27800861  0.23550593  0.71265268     0.82900
N22         N  0.25004848  0.21109878  0.71268562    -0.77800
C23         C  0.23560035  0.19959612  0.74973573     0.83000
N24         N  0.24997379  0.21124007  0.78669600    -0.79500
C25         C  0.00782100  0.25288709  0.74854933     0.80400
N26         N  0.00551528  0.23857571  0.71162010    -0.77900
C27         C  0.00005471  0.21003341  0.71195153     0.82900
N28         N  0.99640112  0.19576613  0.74903410    -0.77800
C29         C  0.99851746  0.20983000  0.78588070     0.83000
N30         N  0.00355400  0.23818888  0.78558378    -0.79500
C31         C  0.01344044  0.20383396  0.25002288     0.80400
N32         N  0.01710779  0.21833682  0.21285574    -0.77900
C33         C  0.02401626  0.24734767  0.21276203     0.82900
N34         N  0.02816231  0.26199985  0.24959738    -0.77800
C35         C  0.02391058  0.24756517  0.28661130     0.83000
N36         N  0.01700401  0.21857862  0.28693257    -0.79500
C37         C  0.03465807  0.47572190  0.25196897     0.80400
N38         N  0.00680597  0.45133171  0.25131421    -0.77900
C39         C  0.48248928  0.45473057  0.25049523     0.82900
N40         N  0.48599880  0.48249900  0.25023233    -0.77800
C41         C  0.01386857  0.00689137  0.25082460     0.83000
N42         N  0.03821015  0.00351783  0.25169855    -0.79500
C43         C  0.48442082  0.47926466  0.75088832     0.80400
N44         N  0.01199543  0.00419302  0.75133289    -0.77900
C45         C  0.03686323  0.00170853  0.75168345     0.82900
N46         N  0.03425231  0.47432913  0.75152023    -0.77800
C47         C  0.00676805  0.44944146  0.75109991     0.83000
N48         N  0.48188254  0.45188083  0.75074229    -0.79500
C49         C  0.44636042  0.07243727  0.12542280     0.80400
N50         N  0.45623255  0.08974144  0.09021943    -0.77900
C51         C  0.43860576  0.08217058  0.05543189     0.82900
N52         N  0.41136860  0.05696046  0.05572509    -0.77800
C53         C  0.40156149  0.03929812  0.09026253     0.83000
N54         N  0.41904570  0.04700042  0.12530297    -0.79500
Zn55       Zn  0.05447912  0.14938348  0.25120502     1.49700
Zn56       Zn  0.98215537  0.10791693  0.25034261     1.49400
Zn57       Zn  0.02359585  0.08892934  0.19993930     1.49100
Zn58       Zn  0.02360832  0.08891786  0.30136612     1.49500
O59         O  0.02074328  0.10874854  0.25069250    -1.83900
O60         O  0.03992209  0.17841198  0.25091368    -0.74500
O61         O  0.45820165  0.08781755  0.19684745    -0.74400
O62         O  0.06313847  0.11360205  0.16964575    -0.73900
O63         O  0.99007756  0.15081303  0.25020292    -0.74600
O64         O  0.08161661  0.15754244  0.20164138    -0.74200
O65         O  0.99090433  0.08168689  0.15877593    -0.74700
O66         O  0.01920077  0.04927084  0.28578856    -0.74100
O67         O  0.45787025  0.08747626  0.30346988    -0.74900
O68         O  0.01896837  0.04909918  0.21552883    -0.74300
O69         O  0.99047183  0.08128865  0.34163093    -0.74700
O70         O  0.06291970  0.11328539  0.33246873    -0.74700
O71         O  0.08141994  0.15735299  0.30101750    -0.74400
C72         C  0.01425710  0.17608113  0.25038055     0.77300
C73         C  0.46596445  0.08078516  0.16248937     0.77800
C74         C  0.08324524  0.14098813  0.17341883     0.76800
C75         C  0.01760625  0.03668152  0.25068766     0.77200
C76         C  0.46548676  0.08023951  0.33771651     0.78300
C77         C  0.08303729  0.14068284  0.32900742     0.77400
C78         C  0.44583785  0.07167769  0.37468199     0.80400
N79         N  0.45590692  0.08866799  0.41006149    -0.77900
C80         C  0.43874118  0.08056052  0.44528061     0.82900
N81         N  0.41157823  0.05531015  0.44534356    -0.77800
C82         C  0.40141842  0.03810320  0.41032019     0.83000
N83         N  0.41856586  0.04621646  0.37484110    -0.79500
C84         C  0.07467895  0.38474692  0.62430722     0.80400
N85         N  0.10165108  0.41054478  0.62337567    -0.77900
C86         C  0.11801827  0.41924347  0.58710125     0.82900
N87         N  0.10738473  0.40197242  0.55218609    -0.77800
C88         C  0.08070512  0.37618668  0.55315857     0.83000
N89         N  0.06427985  0.36765563  0.58907358    -0.79500
Zn90       Zn  0.03939450  0.34884151  0.74926077     1.49700
Zn91       Zn  0.49779824  0.36759581  0.80010805     1.49400
Zn92       Zn  0.49796129  0.36817162  0.69974379     1.49100
Zn93       Zn  0.46697358  0.30724935  0.74928902     1.49500
O94         O  0.50081845  0.34795116  0.74960144    -1.83900
O95         O  0.06340972  0.36896740  0.80286361    -0.74500
O96         O  0.50239872  0.40738335  0.78558660    -0.74400
O97         O  0.03037769  0.37518255  0.65838617    -0.73900
O98         O  0.03031045  0.37454769  0.84094283    -0.74600
O99         O  0.06342794  0.36926876  0.69584841    -0.74200
O100        O  0.50278444  0.40790100  0.71542803    -0.74700
O101        O  0.43998278  0.29942275  0.69963185    -0.74100
O102        O  0.45799625  0.34330462  0.82938839    -0.74900
O103        O  0.45804356  0.34431525  0.67064705    -0.74300
O104        O  0.43993243  0.29873050  0.79932653    -0.74700
O105        O  0.48133810  0.27823053  0.74848987    -0.74700
O106        O  0.03119703  0.30584696  0.74859523    -0.74400
C107        C  0.05540100  0.37578007  0.83722225     0.77300
C108        C  0.50392523  0.42007826  0.75068860     0.77800
C109        C  0.05541373  0.37625262  0.66172848     0.76800
C110        C  0.43817052  0.31680961  0.67316433     0.77200
C111        C  0.43812980  0.31582832  0.82641313     0.78300
C112        C  0.50699085  0.28058418  0.74830432     0.77400
C113        C  0.07473206  0.38428423  0.87450353     0.80400
N114        N  0.06434860  0.36720515  0.90977632    -0.77900
C115        C  0.08086556  0.37566084  0.94557260     0.82900
N116        N  0.10768157  0.40129301  0.94629729    -0.77800
C117        C  0.11818371  0.41854517  0.91140124     0.83000
N118        N  0.10169070  0.41012599  0.87534566    -0.79500
C119        C  0.35148353  0.41504194  0.62422506     0.80400
N120        N  0.35189690  0.38895197  0.62310576    -0.77900
C121        C  0.34442306  0.37245354  0.58698399     0.82900
N122        N  0.33684647  0.38228540  0.55216042    -0.77800
C123        C  0.33619981  0.40807550  0.55323967     0.83000
N124        N  0.34334084  0.42430336  0.58922944    -0.79500
Zn125      Zn  0.43143570  0.02240025  0.74888827     1.49700
Zn126      Zn  0.38931695  0.45029034  0.74927053     1.49400
Zn127      Zn  0.37050073  0.99186797  0.80027144     1.49100
Zn128      Zn  0.37020119  0.99230162  0.70010982     1.49500
O129        O  0.39036151  0.98892993  0.74968564    -1.83900
O130        O  0.46068314  0.00793615  0.75066803    -0.74500
O131        O  0.36970220  0.42611275  0.80318405    -0.74400
O132        O  0.39576363  0.03056161  0.83192076    -0.73900
O133        O  0.43186409  0.45834321  0.74938587    -0.74600
O134        O  0.43905359  0.05010773  0.79767968    -0.74200
O135        O  0.36151839  0.45818182  0.83925422    -0.74700
O136        O  0.33150618  0.98964948  0.71599747    -0.74100
O137        O  0.36967002  0.42678453  0.69505969    -0.74900
O138        O  0.33155891  0.98943355  0.78600806    -0.74300
O139        O  0.36096990  0.45883369  0.65993791    -0.74700
O140        O  0.39514979  0.03165718  0.66967722    -0.74700
O141        O  0.44015904  0.04841130  0.69771766    -0.74400
C142        C  0.45756405  0.98195685  0.75030452     0.77300
C143        C  0.36141949  0.43361812  0.83670520     0.77800
C144        C  0.42283069  0.05119983  0.82698940     0.76800
C145        C  0.31931681  0.98895544  0.75110077     0.77200
C146        C  0.36101982  0.43430152  0.66197416     0.78300
C147        C  0.42299545  0.05067695  0.67129315     0.77400
C148        C  0.35217664  0.41449513  0.87453144     0.80400
N149        N  0.34438377  0.42406005  0.90961151    -0.77900
C150        C  0.33750900  0.40815234  0.94580244     0.82900
N151        N  0.33797777  0.38227788  0.94700802    -0.77800
C152        C  0.34524404  0.37213721  0.91212668     0.83000
N153        N  0.35251209  0.38836879  0.87576142    -0.79500
C154        C  0.16753421  0.04373343  0.12590317     0.80400
N155        N  0.17457004  0.03361212  0.09071415    -0.77900
C156        C  0.18392172  0.05068177  0.05546264     0.82900
N157        N  0.18602904  0.07782188  0.05517783    -0.77800
C158        C  0.17889865  0.08806885  0.09000227     0.83000
N159        N  0.16953733  0.07098582  0.12550648    -0.79500
Zn160      Zn  0.13670828  0.43563850  0.24963756     1.49700
Zn161      Zn  0.10748750  0.46637146  0.30154291     1.49400
Zn162      Zn  0.16799294  0.50782262  0.25017828     1.49100
Zn163      Zn  0.10672536  0.46612238  0.20000731     1.49500
O164        O  0.12989394  0.46924135  0.25034225    -1.83900
O165        O  0.11788707  0.40854968  0.29918613    -0.74500
O166        O  0.13336241  0.49935888  0.34213353    -0.74400
O167        O  0.20305975  0.49994799  0.24974585    -0.73900
O168        O  0.09269158  0.42691694  0.33192207    -0.74600
O169        O  0.18039716  0.45016589  0.24920082    -0.74200
O170        O  0.17214340  0.03200893  0.30354290    -0.74700
O171        O  0.13212286  0.49933968  0.15949993    -0.74100
O172        O  0.07205259  0.47079636  0.28672989    -0.74900
O173        O  0.17165950  0.03185599  0.19699610    -0.74300
O174        O  0.07151550  0.47039829  0.21646624    -0.74700
O175        O  0.09157677  0.42670369  0.16877041    -0.74700
O176        O  0.11746491  0.40864477  0.19999698    -0.74400
C177        C  0.09983766  0.40685007  0.32771591     0.77300
C178        C  0.15743537  0.02437681  0.33803398     0.77800
C179        C  0.20396032  0.47577787  0.24935378     0.76800
C180        C  0.15639542  0.02424748  0.16304058     0.77200
C181        C  0.06076046  0.47207492  0.25175482     0.78300
C182        C  0.09901635  0.40679846  0.17209389     0.77400
C183        C  0.16886783  0.04414334  0.37492305     0.80400
N184        N  0.17081163  0.07137493  0.37499960    -0.77900
C185        C  0.18057080  0.08885600  0.41009529     0.82900
N186        N  0.18832474  0.07910584  0.44471657    -0.77800
C187        C  0.18618672  0.05192850  0.44500188     0.83000
N188        N  0.17614975  0.03433848  0.41018899    -0.79500
C189        C  0.34479731  0.17266926  0.57675079     0.80400
N190        N  0.31847606  0.14634323  0.57774294    -0.77900
C191        C  0.31823297  0.12003798  0.57848619     0.82900
N192        N  0.34450264  0.12010464  0.57868438    -0.77800
C193        C  0.37087869  0.14630605  0.57730988     0.83000
N194        N  0.37104323  0.17260348  0.57613896    -0.79500
Zn195      Zn  0.45208727  0.15236460  0.52849430     1.49700
Zn196      Zn  0.00991736  0.18215173  0.58726838     1.49400
Zn197      Zn  0.44464654  0.13829041  0.62661474     1.49100
Zn198      Zn  0.47568797  0.11110335  0.57038624     1.49500
O199        O  0.47070385  0.14599410  0.57809332    -1.83900
O200        O  0.47804937  0.19278759  0.50248076    -0.74500
O201        O  0.01088318  0.20162561  0.64267778    -0.74400
O202        O  0.40825713  0.14106891  0.61174551    -0.73900
O203        O  0.01883041  0.21329282  0.54244398    -0.74600
O204        O  0.41326209  0.15054026  0.54302796    -0.74200
O205        O  0.46729820  0.16854191  0.67150627    -0.74700
O206        O  0.45281771  0.07883654  0.61367115    -0.74100
O207        O  0.04294463  0.17178214  0.58898559    -0.74900
O208        O  0.42997979  0.09751974  0.65163457    -0.74300
O209        O  0.01884077  0.12259180  0.57798025    -0.74700
O210        O  0.46095771  0.09307643  0.51259721    -0.74700
O211        O  0.44404445  0.12126881  0.48464353    -0.74400
C212        C  0.00378839  0.21455617  0.51159900     0.77300
C213        C  0.49248834  0.19263502  0.67322361     0.77800
C214        C  0.39897325  0.14606134  0.57737863     0.76800
C215        C  0.43561039  0.07680002  0.64368698     0.77200
C216        C  0.04272739  0.14715070  0.58554465     0.78300
C217        C  0.44874064  0.09944069  0.48266796     0.77400
Zn218      Zn  0.04538921  0.34592766  0.42756541     1.49700
Zn219      Zn  0.01133774  0.27478516  0.41022818     1.49400
Zn220      Zn  0.07721871  0.31896354  0.37305488     1.49100
Zn221      Zn  0.06795208  0.30434312  0.47086203     1.49500
O222        O  0.05030344  0.31096644  0.42049894    -1.83900
O223        O  0.00225272  0.33429878  0.41917860    -0.74500
O224        O  0.01165752  0.25583870  0.35495475    -0.74400
O225        O  0.09150624  0.35936152  0.34745450    -0.73900
O226        O  0.47827066  0.28513211  0.40774665    -0.74600
O227        O  0.06912456  0.37859466  0.38510301    -0.74200
O228        O  0.05605194  0.28867869  0.32797904    -0.74700
O229        O  0.10713529  0.30669476  0.45813950    -0.74100
O230        O  0.00166941  0.24317224  0.45480736    -0.74900
O231        O  0.11360618  0.31696454  0.38967988    -0.74300
O232        O  0.04191243  0.26372902  0.49578228    -0.74700
O233        O  0.07495242  0.33494347  0.51486796    -0.74700
O234        O  0.05943639  0.36383244  0.48538543    -0.74400
C235        C  0.47841843  0.30972830  0.41136250     0.77300
C236        C  0.03085463  0.26471035  0.32541541     0.77800
C237        C  0.08630158  0.38041226  0.35514781     0.76800
C238        C  0.12220624  0.31175201  0.42445508     0.77200
C239        C  0.01639596  0.24187644  0.48604955     0.78300
C240        C  0.07074876  0.35709694  0.51606230     0.77400
Zn241      Zn  0.25782409  0.02439337  0.58634387     1.49700
Zn242      Zn  0.19379980  0.00237842  0.62965558     1.49400
Zn243      Zn  0.22218941  0.05909396  0.57041994     1.49100
Zn244      Zn  0.19879804  0.49322451  0.53065425     1.49500
O245        O  0.21805691  0.01971587  0.57896138    -1.83900
O246        O  0.26118853  0.00919719  0.64278026    -0.74500
O247        O  0.17894485  0.02826120  0.65426457    -0.74400
O248        O  0.26544347  0.09185139  0.57350599    -0.73900
O249        O  0.21803523  0.49713347  0.67415638    -0.74600
O250        O  0.29004622  0.06747362  0.58350683    -0.74200
O251        O  0.19955216  0.06878305  0.61391320    -0.74700
O252        O  0.18991043  0.01532028  0.48536137    -0.74100
O253        O  0.15740064  0.46264551  0.61838110    -0.74900
O254        O  0.20660007  0.06050910  0.51323670    -0.74300
O255        O  0.15992298  0.45653727  0.54942870    -0.74700
O256        O  0.22596027  0.47963103  0.50409113    -0.74700
O257        O  0.26757063  0.00282657  0.54222084    -0.74400
C258        C  0.24401618  0.50020144  0.67471567     0.77300
C259        C  0.18335794  0.05402480  0.64505717     0.77800
C260        C  0.28974877  0.09167060  0.57859033     0.76800
C261        C  0.19461179  0.04193624  0.48313563     0.77200
C262        C  0.14665997  0.44755806  0.58488706     0.78300
C263        C  0.25264985  0.48583582  0.51192268     0.77400
Zn264      Zn  0.27730137  0.42123784  0.47082324     1.49700
Zn265      Zn  0.28284262  0.41200519  0.37235130     1.49400
Zn266      Zn  0.30481931  0.47761424  0.41018061     1.49100
Zn267      Zn  0.34141501  0.44289766  0.42716192     1.49500
O268        O  0.30171239  0.43860900  0.42020316    -1.83900
O269        O  0.24085022  0.38171341  0.45792527    -0.74500
O270        O  0.27364591  0.43326536  0.32766950    -0.74400
O271        O  0.28313400  0.48766137  0.45499263    -0.73900
O272        O  0.24458079  0.37546391  0.38929016    -0.74600
O273        O  0.26225217  0.44711228  0.49538486    -0.74200
O274        O  0.28580135  0.47765989  0.35474175    -0.74700
O275        O  0.37339480  0.48606385  0.42001002    -0.74100
O276        O  0.30880606  0.39775195  0.34602080    -0.74900
O277        O  0.34857479  0.01022458  0.40820582    -0.74300
O278        O  0.35035837  0.41957613  0.38404128    -0.74700
O279        O  0.34470657  0.42806333  0.48463867    -0.74700
O280        O  0.30091472  0.41457292  0.51536485    -0.74400
C281        C  0.23093304  0.36662152  0.42424648     0.77300
C282        C  0.27522533  0.45852100  0.32516615     0.77800
C283        C  0.26662051  0.47283748  0.48591712     0.76800
C284        C  0.37294478  0.00995365  0.41235837     0.77200
C285        C  0.33501691  0.40271105  0.35379624     0.78300
C286        C  0.32692931  0.41770153  0.51593169     0.77400
C287        C  0.17677794  0.28589341  0.42642663     0.80400
N288        N  0.15041202  0.28563243  0.42613319    -0.77900
C289        C  0.15035538  0.31181078  0.42571656     0.82900
N290        N  0.17658215  0.33814833  0.42531823    -0.77800
C291        C  0.20287491  0.33836239  0.42561954     0.83000
N292        N  0.20299726  0.31226105  0.42601931    -0.79500
Zn293      Zn  0.33660173  0.29155793  0.53126338     1.49700
Zn294      Zn  0.35022372  0.29600345  0.63029558     1.49400
Zn295      Zn  0.30861440  0.23208031  0.58676113     1.49100
Zn296      Zn  0.37896915  0.26830583  0.56958446     1.49500
O297        O  0.34360883  0.27209037  0.57933961    -1.83900
O298        O  0.33920311  0.33032528  0.54995086    -0.74500
O299        O  0.31871127  0.27204592  0.67347225    -0.74400
O300        O  0.27789814  0.22231377  0.54201979    -0.73900
O301        O  0.34877578  0.33343443  0.61861459    -0.74600
O302        O  0.29560427  0.26451411  0.50545530    -0.74200
O303        O  0.28839582  0.22848582  0.64244721    -0.74700
O304        O  0.36898219  0.22535947  0.57095313    -0.74100
O305        O  0.39051082  0.30892561  0.65610650    -0.74900
O306        O  0.32010525  0.20032701  0.58382960    -0.74300
O307        O  0.41084499  0.28994855  0.61344547    -0.74700
O308        O  0.39646282  0.28485743  0.51297754    -0.74700
O309        O  0.36742509  0.30072227  0.48528769    -0.74400
C310        C  0.34419167  0.34395942  0.58513619     0.77300
C311        C  0.29557102  0.24605083  0.67383991     0.77800
C312        C  0.27546327  0.23751460  0.51261139     0.76800
C313        C  0.34466110  0.20093230  0.57711945     0.77200
C314        C  0.41195615  0.30483020  0.64591218     0.78300
C315        C  0.38967160  0.29657989  0.48293849     0.77400
Zn316      Zn  0.21526242  0.18499826  0.41145031     1.49700
Zn317      Zn  0.18586344  0.21216391  0.47217443     1.49400
Zn318      Zn  0.17111643  0.20610947  0.37425447     1.49100
Zn319      Zn  0.14398445  0.14734421  0.42921291     1.49500
O320        O  0.17905328  0.18749489  0.42194155    -1.83900
O321        O  0.24680686  0.20683012  0.45612146    -0.74500
O322        O  0.18233704  0.24829261  0.45927752    -0.74400
O323        O  0.20130711  0.21517154  0.32891650    -0.73900
O324        O  0.22703774  0.22771215  0.49622823    -0.74600
O325        O  0.23424669  0.20415271  0.35602736    -0.74200
O326        O  0.17252792  0.24422626  0.39066754    -0.74700
O327        O  0.11106768  0.13812044  0.38666016    -0.74100
O328        O  0.15559723  0.18837214  0.51688570    -0.74900
O329        O  0.13076530  0.17972845  0.34879163    -0.74300
O330        O  0.12639087  0.14372621  0.48748301    -0.74700
O331        O  0.15574828  0.11593081  0.42067582    -0.74700
O332        O  0.20493367  0.14164996  0.40890377    -0.74400
C333        C  0.24845880  0.22342801  0.48679506     0.77300
C334        C  0.17708343  0.25794464  0.42548675     0.77800
C335        C  0.22524581  0.21405747  0.32628136     0.76800
C336        C  0.10946691  0.15347125  0.35657160     0.77200
C337        C  0.13331839  0.16188233  0.51822507     0.78300
C338        C  0.18038495  0.11697372  0.41265773     0.77400
C339        C  0.10365823  0.13593696  0.62548307     0.80400
N340        N  0.12142443  0.14341455  0.59076200    -0.77900
C341        C  0.11403115  0.15279843  0.55529377     0.82900
N342        N  0.08879530  0.15453517  0.55435793    -0.77800
C343        C  0.07086640  0.14701763  0.58866423     0.83000
N344        N  0.07820567  0.13758669  0.62435771    -0.79500
Zn345      Zn  0.11886213  0.07520786  0.80174539     1.49700
Zn346      Zn  0.13911904  0.13587913  0.75039379     1.49400
Zn347      Zn  0.17939640  0.10420594  0.75054305     1.49100
Zn348      Zn  0.11880457  0.07462931  0.70041863     1.49500
O349        O  0.13893719  0.09766608  0.75079189    -1.83900
O350        O  0.11208757  0.10121927  0.84196444    -0.74500
O351        O  0.18253858  0.17032646  0.74945457    -0.74400
O352        O  0.18672623  0.08477333  0.80005320    -0.73900
O353        O  0.11970333  0.14067626  0.80415497    -0.74600
O354        O  0.14298308  0.06032361  0.83300943    -0.74200
O355        O  0.20934307  0.14752726  0.75093257    -0.74700
O356        O  0.14310342  0.05936201  0.67006432    -0.74100
O357        O  0.11900672  0.13974791  0.69697130    -0.74900
O358        O  0.18767670  0.08614356  0.70013006    -0.74300
O359        O  0.11174255  0.10023223  0.65947292    -0.74700
O360        O  0.07895162  0.03931884  0.71637833    -0.74700
O361        O  0.07889140  0.03973373  0.78663227    -0.74400
C362        C  0.11212863  0.12570068  0.83839262     0.77300
C363        C  0.20757575  0.17108158  0.74998318     0.77800
C364        C  0.17017159  0.06713421  0.82888157     0.76800
C365        C  0.17071795  0.06745776  0.67267721     0.77200
C366        C  0.11148145  0.12459943  0.66287315     0.78300
C367        C  0.06641051  0.02838754  0.75157681     0.77400
C368        C  0.10419595  0.13702272  0.87571552     0.80400
N369        N  0.07856244  0.13828933  0.87683565    -0.77900
C370        C  0.07018747  0.14624680  0.91307382     0.82900
N371        N  0.08758343  0.15301702  0.94783633    -0.77800
C372        C  0.11322062  0.15202718  0.94672982     0.83000
N373        N  0.12144966  0.14387224  0.91080100    -0.79500
C374        C  0.34336179  0.17148018  0.92072158     0.80400
N375        N  0.36963478  0.17151960  0.92133868    -0.77900
C376        C  0.36971051  0.14534117  0.92302723     0.82900
N377        N  0.34332989  0.11906511  0.92465906    -0.77800
C378        C  0.31706967  0.11898145  0.92379725     0.83000
N379        N  0.31710762  0.14512222  0.92145214    -0.79500
Zn380      Zn  0.48780114  0.13982217  0.87032894     1.49700
Zn381      Zn  0.49686641  0.15379425  0.96906834     1.49400
Zn382      Zn  0.46558045  0.18135613  0.91261274     1.49100
Zn383      Zn  0.43091439  0.11083101  0.93004036     1.49500
O384        O  0.47029072  0.14641799  0.92084078    -1.83900
O385        O  0.02695309  0.14228255  0.88192045    -0.74500
O386        O  0.01039860  0.19458914  0.99495054    -0.74400
O387        O  0.48174202  0.20064122  0.85636667    -0.73900
O388        O  0.03345962  0.15163023  0.95063619    -0.74600
O389        O  0.49446759  0.16990175  0.82602207    -0.74200
O390        O  0.48695579  0.21254430  0.95678224    -0.74700
O391        O  0.39808307  0.12112327  0.92820761    -0.74100
O392        O  0.47505869  0.12298258  0.01493359    -0.74900
O393        O  0.42230407  0.17003496  0.91585829    -0.74300
O394        O  0.42991667  0.09381161  0.98717144    -0.74700
O395        O  0.42105975  0.07844886  0.88628318    -0.74700
O396        O  0.46136377  0.09941886  0.84538578    -0.74400
C397        C  0.04212885  0.14684896  0.91531342     0.77300
C398        C  0.00399777  0.21483444  0.98701420     0.77800
C399        C  0.49160262  0.19286834  0.82503245     0.76800
C400        C  0.39816261  0.14548484  0.92239916     0.77200
C401        C  0.44851847  0.10070273  0.01726162     0.78300
C402        C  0.43571605  0.07755515  0.85460144     0.77400
Zn403      Zn  0.01140396  0.27429667  0.08900219     1.49700
Zn404      Zn  0.06821323  0.30419363  0.02846766     1.49400
Zn405      Zn  0.04505295  0.34562179  0.07148201     1.49100
Zn406      Zn  0.07705019  0.31904047  0.12628105     1.49500
O407        O  0.05024670  0.31077868  0.07870947    -1.83900
O408        O  0.00184535  0.24291509  0.04411673    -0.74500
O409        O  0.07522170  0.33468318  0.98434434    -0.74400
O410        O  0.00165004  0.33336974  0.07954752    -0.73900
O411        O  0.04235968  0.26348335  0.00342082    -0.74600
O412        O  0.47806812  0.28427224  0.09155261    -0.74200
O413        O  0.05926291  0.36341090  0.01337331    -0.74700
O414        O  0.09081593  0.35939000  0.15195093    -0.74100
O415        O  0.10751385  0.30689810  0.04143610    -0.74900
O416        O  0.06840578  0.37852474  0.11434456    -0.74300
O417        O  0.11381540  0.31751651  0.10980979    -0.74700
O418        O  0.05591385  0.28855941  0.17126716    -0.74700
O419        O  0.01181956  0.25520602  0.14414629    -0.74400
C420        C  0.01674396  0.24174155  0.01299040     0.77300
C421        C  0.07081676  0.35669826  0.98284775     0.77800
C422        C  0.47794254  0.30870545  0.08756737     0.76800
C423        C  0.08550867  0.38038304  0.14440012     0.77200
C424        C  0.12257477  0.31225313  0.07513231     0.78300
C425        C  0.03092304  0.26433162  0.17376969     0.77400
Zn426      Zn  0.24224664  0.03706609  0.97214591     1.49700
Zn427      Zn  0.21443735  0.48017230  0.91182267     1.49400
Zn428      Zn  0.17712768  0.01386616  0.93011133     1.49100
Zn429      Zn  0.23546866  0.04533173  0.87449715     1.49500
O430        O  0.21713224  0.01890640  0.92240314    -1.83900
O431        O  0.25657225  0.01087644  0.99732816    -0.74500
O432        O  0.17096994  0.44711603  0.90955942    -0.74400
O433        O  0.17405994  0.02851999  0.98807178    -0.73900
O434        O  0.23655444  0.47071385  0.95615598    -0.74600
O435        O  0.21919966  0.04495642  0.01628324    -0.74200
O436        O  0.14553454  0.47050154  0.92261162    -0.74700
O437        O  0.20923094  0.05905757  0.84908342    -0.74100
O438        O  0.23334940  0.48027648  0.85628295    -0.74900
O439        O  0.16760757  0.03695027  0.88708539    -0.74300
O440        O  0.24411313  0.02423761  0.82930632    -0.74700
O441        O  0.27407085  0.08193527  0.88980304    -0.74700
O442        O  0.27946613  0.07600245  0.95792196    -0.74400
C443        C  0.25270767  0.48536957  0.98744083     0.77300
C444        C  0.14639226  0.44691919  0.91408461     0.77800
C445        C  0.19269219  0.04051660  0.01814204     0.76800
C446        C  0.18293359  0.05382151  0.85677556     0.77200
C447        C  0.24314070  0.49930816  0.82659735     0.78300
C448        C  0.28876271  0.09081975  0.92390450     0.77400
Zn449      Zn  0.28369247  0.41231067  0.12609816     1.49700
Zn450      Zn  0.34262188  0.44392524  0.07142469     1.49400
Zn451      Zn  0.27825238  0.42120808  0.02781131     1.49100
Zn452      Zn  0.30519728  0.47766683  0.08872862     1.49500
O453        O  0.30258271  0.43892814  0.07837398    -1.83900
O454        O  0.30982652  0.39814892  0.15174004    -0.74500
O455        O  0.34628516  0.42933910  0.01375631    -0.74400
O456        O  0.24142801  0.38184280  0.04082931    -0.73900
O457        O  0.35163163  0.42045434  0.11412105    -0.74600
O458        O  0.24532141  0.37574187  0.10938717    -0.74200
O459        O  0.30190762  0.41408386  0.98382114    -0.74700
O460        O  0.28342827  0.48725439  0.04405928    -0.74100
O461        O  0.37420763  0.48726099  0.07965726    -0.74900
O462        O  0.26355486  0.44715233  0.00280451    -0.74300
O463        O  0.34871460  0.01075706  0.09143456    -0.74700
O464        O  0.28566330  0.47744522  0.14380715    -0.74700
O465        O  0.27438986  0.43341835  0.17113208    -0.74400
C466        C  0.33612613  0.40328277  0.14403947     0.77300
C467        C  0.32822686  0.41799019  0.98294915     0.77800
C468        C  0.23150278  0.36685697  0.07459505     0.76800
C469        C  0.26734346  0.47262299  0.01272143     0.77200
C470        C  0.37332170  0.01090056  0.08768901     0.78300
C471        C  0.27541746  0.45842796  0.17350781     0.77400
C472        C  0.17695655  0.28614455  0.07395835     0.80400
N473        N  0.20325185  0.31245207  0.07379147    -0.77900
C474        C  0.20329309  0.33864702  0.07356633     0.82900
N475        N  0.17704899  0.33857218  0.07384938    -0.77800
C476        C  0.15073829  0.31228054  0.07404552     0.83000
N477        N  0.15067364  0.28604040  0.07420353    -0.79500
Zn478      Zn  0.37817014  0.26702700  0.92944948     1.49700
Zn479      Zn  0.33620159  0.29079518  0.96810069     1.49400
Zn480      Zn  0.35018643  0.29520563  0.86904123     1.49100
Zn481      Zn  0.30770052  0.23141003  0.91242165     1.49500
O482        O  0.34305066  0.27119427  0.91994249    -1.83900
O483        O  0.39533692  0.28281649  0.98651979    -0.74500
O484        O  0.33937655  0.32982359  0.94929949    -0.74400
O485        O  0.39036510  0.30772511  0.84323382    -0.73900
O486        O  0.36693737  0.29959853  0.01398839    -0.74600
O487        O  0.41057837  0.28889052  0.88612964    -0.74200
O488        O  0.34924744  0.33285215  0.88068336    -0.74700
O489        O  0.28768337  0.22846097  0.85696109    -0.74100
O490        O  0.29510396  0.26396456  0.99421463    -0.74900
O491        O  0.31882650  0.27169991  0.82578154    -0.74300
O492        O  0.27710303  0.22170258  0.95766299    -0.74700
O493        O  0.31871935  0.19925466  0.91413818    -0.74700
O494        O  0.36763729  0.22404855  0.92666762    -0.74400
C495        C  0.38880529  0.29487429  0.01648894     0.77300
C496        C  0.34468275  0.34349229  0.91410668     0.77800
C497        C  0.41179355  0.30369161  0.85356575     0.76800
C498        C  0.29533856  0.24598361  0.82548966     0.77200
C499        C  0.27485048  0.23696739  0.98723716     0.78300
C500        C  0.34325759  0.19973411  0.92029230     0.77400
Zn501      Zn  0.14340611  0.14739558  0.07251731     1.49700
Zn502      Zn  0.17104914  0.20641207  0.12689710     1.49400
Zn503      Zn  0.21473935  0.18453964  0.08907666     1.49100
Zn504      Zn  0.18537233  0.21177528  0.02880353     1.49500
O505        O  0.17870093  0.18742307  0.07922886    -1.83900
O506        O  0.11105944  0.13843195  0.11561234    -0.74500
O507        O  0.20136188  0.21539374  0.17179050    -0.74400
O508        O  0.20395874  0.14095313  0.09104475    -0.73900
O509        O  0.13080361  0.18023136  0.15310339    -0.74600
O510        O  0.15467319  0.11571215  0.08030266    -0.74200
O511        O  0.23369365  0.20343720  0.14465067    -0.74700
O512        O  0.22644948  0.22718879  0.00422380    -0.74100
O513        O  0.17272301  0.24466151  0.11025955    -0.74900
O514        O  0.24636168  0.20647851  0.04418703    -0.74300
O515        O  0.18193452  0.24802696  0.04145749    -0.74700
O516        O  0.15500574  0.18762090  0.98452424    -0.74700
O517        O  0.12526961  0.14348549  0.01488177    -0.74400
C518        C  0.10956848  0.15387063  0.14567788     0.77300
C519        C  0.22501469  0.21376608  0.17435094     0.77800
C520        C  0.17920433  0.11642860  0.08757648     0.76800
C521        C  0.24792338  0.22296579  0.01343962     0.77200
C522        C  0.17707573  0.25808571  0.07523368     0.78300
C523        C  0.13242531  0.16130121  0.98375294     0.77400
C524        C  0.41743501  0.32185241  0.37430732     0.80400
N525        N  0.40053796  0.31500093  0.40987736    -0.77900
C526        C  0.40810052  0.30504933  0.44465914     0.82900
N527        N  0.43293432  0.30254382  0.44401234    -0.77800
C528        C  0.45019351  0.30976058  0.40906129     0.83000
N529        N  0.44248126  0.31945376  0.37400448    -0.79500
Zn530      Zn  0.40067469  0.38212536  0.19849855     1.49700
Zn531      Zn  0.40001943  0.38187280  0.30024536     1.49400
Zn532      Zn  0.34005301  0.35207596  0.24870973     1.49100
Zn533      Zn  0.38190672  0.32181354  0.24956707     1.49500
O534        O  0.38071373  0.35932405  0.24920366    -1.83900
O535        O  0.44042800  0.41751114  0.21467285    -0.74500
O536        O  0.37524763  0.39654696  0.33036362    -0.74400
O537        O  0.33202788  0.37089531  0.19903440    -0.73900
O538        O  0.43982759  0.41736377  0.28497749    -0.74600
O539        O  0.37629892  0.39715466  0.16796540    -0.74200
O540        O  0.33143391  0.37086836  0.29807887    -0.74700
O541        O  0.33909161  0.28647433  0.25023489    -0.74100
O542        O  0.40728789  0.35650258  0.34130661    -0.74900
O543        O  0.31135920  0.30834507  0.24879389    -0.74300
O544        O  0.40252159  0.31842532  0.30269163    -0.74700
O545        O  0.40184570  0.31787303  0.19605895    -0.74700
O546        O  0.40798626  0.35653783  0.15761230    -0.74400
C547        C  0.45263944  0.42853047  0.25000667     0.77300
C548        C  0.34789696  0.38918500  0.32632914     0.77800
C549        C  0.34883464  0.38957443  0.17136401     0.76800
C550        C  0.31379487  0.28512734  0.24965608     0.77200
C551        C  0.40897630  0.33294481  0.33727862     0.78300
C552        C  0.40886824  0.33253214  0.16158545     0.77400
C553        C  0.41706567  0.32104454  0.12465866     0.80400
N554        N  0.39992772  0.31374683  0.08934451    -0.77900
C555        C  0.40723842  0.30332305  0.05473333     0.82900
N556        N  0.43207326  0.30079710  0.05529640    -0.77800
C557        C  0.44957526  0.30847754  0.09000429     0.83000
N558        N  0.44210405  0.31865000  0.12485193    -0.79500
C559        C  0.25494694  0.99458932  0.71393265     0.80400
N560        N  0.27953530  0.99165840  0.71412404    -0.77900
C561        C  0.29106886  0.98896361  0.75111866     0.82900
N562        N  0.27822069  0.98977884  0.78806066    -0.77800
C563        C  0.25376475  0.99296622  0.78781029     0.83000
N564        N  0.24243429  0.99569741  0.75081954    -0.79500
C565        C  0.26531083  0.96546759  0.21238910     0.80400
N566        N  0.24342327  0.97263425  0.21224947    -0.77900
C567        C  0.23253603  0.97648455  0.24928669     0.82900
N568        N  0.24344040  0.97280207  0.28633874    -0.77800
C569        C  0.26532126  0.96563704  0.28625694     0.83000
N570        N  0.27554931  0.96124800  0.24934019    -0.79500
C571        C  0.24218798  0.72383144  0.28716704     0.80400
N572        N  0.22745499  0.71349647  0.25030687    -0.77900
C573        C  0.24207043  0.72359100  0.21328189     0.82900
N574        N  0.27127528  0.74541875  0.21302840    -0.77800
C575        C  0.28606926  0.75640018  0.24994280     0.83000
N576        N  0.27141816  0.74565023  0.28706698    -0.79500
C577        C  0.27790814  0.73560405  0.78668107     0.80400
N578        N  0.29165654  0.74772365  0.74966432    -0.77900
C579        C  0.27800873  0.73550594  0.71265273     0.82900
N580        N  0.25004851  0.71109870  0.71268564    -0.77800
C581        C  0.23560043  0.69959614  0.74973575     0.83000
N582        N  0.24997387  0.71124001  0.78669600    -0.79500
C583        C  0.00782098  0.75288702  0.74854928     0.80400
N584        N  0.00551525  0.73857566  0.71162012    -0.77900
C585        C  0.00005480  0.71003346  0.71195152     0.82900
N586        N  0.99640110  0.69576607  0.74903408    -0.77800
C587        C  0.99851741  0.70982996  0.78588067     0.83000
N588        N  0.00355393  0.73818886  0.78558375    -0.79500
C589        C  0.01344039  0.70383395  0.25002283     0.80400
N590        N  0.01710778  0.71833680  0.21285575    -0.77900
C591        C  0.02401625  0.74734768  0.21276208     0.82900
N592        N  0.02816232  0.76199989  0.24959737    -0.77800
C593        C  0.02391066  0.74756522  0.28661127     0.83000
N594        N  0.01700395  0.71857859  0.28693252    -0.79500
C595        C  0.03465810  0.97572187  0.25196890     0.80400
N596        N  0.00680594  0.95133172  0.25131416    -0.77900
C597        C  0.48248935  0.95473070  0.25049518     0.82900
N598        N  0.48599882  0.98249899  0.25023230    -0.77800
C599        C  0.01386864  0.50689141  0.25082450     0.83000
N600        N  0.03821010  0.50351776  0.25169856    -0.79500
C601        C  0.48442078  0.97926464  0.75088833     0.80400
N602        N  0.01199536  0.50419296  0.75133291    -0.77900
C603        C  0.03686322  0.50170858  0.75168344     0.82900
N604        N  0.03425235  0.97432917  0.75152032    -0.77800
C605        C  0.00676810  0.94944149  0.75110001     0.83000
N606        N  0.48188254  0.95188086  0.75074230    -0.79500
C607        C  0.44636040  0.57243725  0.12542280     0.80400
N608        N  0.45623262  0.58974141  0.09021942    -0.77900
C609        C  0.43860581  0.58217065  0.05543191     0.82900
N610        N  0.41136865  0.55696048  0.05572509    -0.77800
C611        C  0.40156152  0.53929809  0.09026248     0.83000
N612        N  0.41904573  0.54700039  0.12530294    -0.79500
Zn613      Zn  0.05447909  0.64938346  0.25120502     1.49700
Zn614      Zn  0.98215531  0.60791690  0.25034260     1.49400
Zn615      Zn  0.02359582  0.58892936  0.19993931     1.49100
Zn616      Zn  0.02360829  0.58891782  0.30136613     1.49500
O617        O  0.02074325  0.60874850  0.25069249    -1.83900
O618        O  0.03992207  0.67841198  0.25091366    -0.74500
O619        O  0.45820162  0.58781751  0.19684743    -0.74400
O620        O  0.06313845  0.61360208  0.16964580    -0.73900
O621        O  0.99007747  0.65081294  0.25020291    -0.74600
O622        O  0.08161660  0.65754244  0.20164137    -0.74200
O623        O  0.99090440  0.58168695  0.15877593    -0.74700
O624        O  0.01920083  0.54927088  0.28578859    -0.74100
O625        O  0.45787019  0.58747620  0.30346986    -0.74900
O626        O  0.01896830  0.54909916  0.21552882    -0.74300
O627        O  0.99047177  0.58128860  0.34163089    -0.74700
O628        O  0.06291977  0.61328544  0.33246878    -0.74700
O629        O  0.08142000  0.65735305  0.30101748    -0.74400
C630        C  0.01425704  0.67608113  0.25038056     0.77300
C631        C  0.46596450  0.58078521  0.16248937     0.77800
C632        C  0.08324533  0.64098826  0.17341885     0.76800
C633        C  0.01760622  0.53668147  0.25068767     0.77200
C634        C  0.46548669  0.58023944  0.33771646     0.78300
C635        C  0.08303734  0.64068291  0.32900757     0.77400
C636        C  0.44583781  0.57167770  0.37468200     0.80400
N637        N  0.45590690  0.58866799  0.41006145    -0.77900
C638        C  0.43874120  0.58056057  0.44528062     0.82900
N639        N  0.41157820  0.55531011  0.44534357    -0.77800
C640        C  0.40141835  0.53810314  0.41032018     0.83000
N641        N  0.41856585  0.54621646  0.37484116    -0.79500
C642        C  0.07467909  0.88474701  0.62430724     0.80400
N643        N  0.10165106  0.91054477  0.62337569    -0.77900
C644        C  0.11801831  0.91924355  0.58710134     0.82900
N645        N  0.10738475  0.90197250  0.55218604    -0.77800
C646        C  0.08070513  0.87618669  0.55315850     0.83000
N647        N  0.06427994  0.86765567  0.58907360    -0.79500
Zn648      Zn  0.03939448  0.84884144  0.74926078     1.49700
Zn649      Zn  0.49779819  0.86759578  0.80010802     1.49400
Zn650      Zn  0.49796133  0.86817164  0.69974381     1.49100
Zn651      Zn  0.46697352  0.80724928  0.74928902     1.49500
O652        O  0.50081844  0.84795120  0.74960144    -1.83900
O653        O  0.06340967  0.86896732  0.80286362    -0.74500
O654        O  0.50239867  0.90738331  0.78558660    -0.74400
O655        O  0.03037778  0.87518261  0.65838622    -0.73900
O656        O  0.03031044  0.87454771  0.84094284    -0.74600
O657        O  0.06342796  0.86926873  0.69584843    -0.74200
O658        O  0.50278448  0.90790101  0.71542802    -0.74700
O659        O  0.43998268  0.79942268  0.69963188    -0.74100
O660        O  0.45799620  0.84330460  0.82938841    -0.74900
O661        O  0.45804352  0.84431520  0.67064699    -0.74300
O662        O  0.43993249  0.79873051  0.79932660    -0.74700
O663        O  0.48133806  0.77823053  0.74848987    -0.74700
O664        O  0.03119694  0.80584686  0.74859520    -0.74400
C665        C  0.05540100  0.87578001  0.83722230     0.77300
C666        C  0.50392520  0.92007827  0.75068860     0.77800
C667        C  0.05541388  0.87625268  0.66172850     0.76800
C668        C  0.43817041  0.81680954  0.67316431     0.77200
C669        C  0.43812985  0.81582835  0.82641312     0.78300
C670        C  0.50699079  0.78058413  0.74830429     0.77400
C671        C  0.07473208  0.88428420  0.87450353     0.80400
N672        N  0.06434859  0.86720513  0.90977632    -0.77900
C673        C  0.08086558  0.87566078  0.94557263     0.82900
N674        N  0.10768157  0.90129295  0.94629723    -0.77800
C675        C  0.11818373  0.91854517  0.91140125     0.83000
N676        N  0.10169068  0.91012596  0.87534565    -0.79500
C677        C  0.35148359  0.91504193  0.62422511     0.80400
N678        N  0.35189689  0.88895199  0.62310577    -0.77900
C679        C  0.34442308  0.87245354  0.58698399     0.82900
N680        N  0.33684648  0.88228545  0.55216037    -0.77800
C681        C  0.33619989  0.90807554  0.55323963     0.83000
N682        N  0.34334077  0.92430332  0.58922947    -0.79500
Zn683      Zn  0.43143565  0.52240021  0.74888826     1.49700
Zn684      Zn  0.38931702  0.95029036  0.74927053     1.49400
Zn685      Zn  0.37050070  0.49186795  0.80027145     1.49100
Zn686      Zn  0.37020116  0.49230158  0.70010979     1.49500
O687        O  0.39036146  0.48892995  0.74968563    -1.83900
O688        O  0.46068308  0.50793613  0.75066802    -0.74500
O689        O  0.36970230  0.92611273  0.80318403    -0.74400
O690        O  0.39576364  0.53056161  0.83192086    -0.73900
O691        O  0.43186402  0.95834316  0.74938584    -0.74600
O692        O  0.43905357  0.55010770  0.79767975    -0.74200
O693        O  0.36151838  0.95818180  0.83925420    -0.74700
O694        O  0.33150617  0.48964943  0.71599743    -0.74100
O695        O  0.36967002  0.92678451  0.69505974    -0.74900
O696        O  0.33155889  0.48943359  0.78600809    -0.74300
O697        O  0.36096985  0.95883365  0.65993797    -0.74700
O698        O  0.39514974  0.53165719  0.66967726    -0.74700
O699        O  0.44015906  0.54841136  0.69771771    -0.74400
C700        C  0.45756403  0.48195680  0.75030453     0.77300
C701        C  0.36141952  0.93361809  0.83670522     0.77800
C702        C  0.42283062  0.55119977  0.82698935     0.76800
C703        C  0.31931666  0.48895535  0.75110077     0.77200
C704        C  0.36101983  0.93430151  0.66197407     0.78300
C705        C  0.42299548  0.55067702  0.67129306     0.77400
C706        C  0.35217675  0.91449517  0.87453147     0.80400
N707        N  0.34438372  0.92406008  0.90961149    -0.77900
C708        C  0.33750901  0.90815234  0.94580247     0.82900
N709        N  0.33797773  0.88227785  0.94700805    -0.77800
C710        C  0.34524397  0.87213724  0.91212670     0.83000
N711        N  0.35251206  0.88836878  0.87576147    -0.79500
C712        C  0.16753410  0.54373338  0.12590313     0.80400
N713        N  0.17456996  0.53361216  0.09071410    -0.77900
C714        C  0.18392165  0.55068178  0.05546265     0.82900
N715        N  0.18602899  0.57782184  0.05517782    -0.77800
C716        C  0.17889861  0.58806894  0.09000225     0.83000
N717        N  0.16953725  0.57098584  0.12550651    -0.79500
Zn718      Zn  0.13670833  0.93563846  0.24963763     1.49700
Zn719      Zn  0.10748748  0.96637141  0.30154294     1.49400
Zn720      Zn  0.16799295  0.00782259  0.25017830     1.49100
Zn721      Zn  0.10672545  0.96612239  0.20000731     1.49500
O722        O  0.12989396  0.96924132  0.25034226    -1.83900
O723        O  0.11788712  0.90854968  0.29918615    -0.74500
O724        O  0.13336246  0.99935885  0.34213345    -0.74400
O725        O  0.20305977  0.99994794  0.24974588    -0.73900
O726        O  0.09269164  0.92691689  0.33192201    -0.74600
O727        O  0.18039712  0.95016588  0.24920083    -0.74200
O728        O  0.17214332  0.53200889  0.30354286    -0.74700
O729        O  0.13212293  0.99933960  0.15949997    -0.74100
O730        O  0.07205263  0.97079636  0.28672991    -0.74900
O731        O  0.17165941  0.53185594  0.19699611    -0.74300
O732        O  0.07151554  0.97039838  0.21646627    -0.74700
O733        O  0.09157686  0.92670376  0.16877042    -0.74700
O734        O  0.11746493  0.90864468  0.19999695    -0.74400
C735        C  0.09983769  0.90684992  0.32771588     0.77300
C736        C  0.15743526  0.52437665  0.33803398     0.77800
C737        C  0.20396039  0.97577787  0.24935381     0.76800
C738        C  0.15639535  0.52424744  0.16304051     0.77200
C739        C  0.06076046  0.97207488  0.25175486     0.78300
C740        C  0.09901644  0.90679846  0.17209387     0.77400
C741        C  0.16886774  0.54414323  0.37492315     0.80400
N742        N  0.17081155  0.57137487  0.37499960    -0.77900
C743        C  0.18057082  0.58885597  0.41009523     0.82900
N744        N  0.18832468  0.57910579  0.44471666    -0.77800
C745        C  0.18618678  0.55192846  0.44500181     0.83000
N746        N  0.17614968  0.53433847  0.41018905    -0.79500
C747        C  0.34479716  0.67266920  0.57675079     0.80400
N748        N  0.31847603  0.64634319  0.57774294    -0.77900
C749        C  0.31823296  0.62003795  0.57848619     0.82900
N750        N  0.34450271  0.62010467  0.57868438    -0.77800
C751        C  0.37087870  0.64630607  0.57730990     0.83000
N752        N  0.37104321  0.67260347  0.57613897    -0.79500
Zn753      Zn  0.45208724  0.65236462  0.52849433     1.49700
Zn754      Zn  0.00991740  0.68215173  0.58726834     1.49400
Zn755      Zn  0.44464656  0.63829046  0.62661471     1.49100
Zn756      Zn  0.47568794  0.61110334  0.57038622     1.49500
O757        O  0.47070382  0.64599408  0.57809330    -1.83900
O758        O  0.47804937  0.69278762  0.50248085    -0.74500
O759        O  0.01088320  0.70162563  0.64267781    -0.74400
O760        O  0.40825718  0.64106899  0.61174558    -0.73900
O761        O  0.01883041  0.71329278  0.54244400    -0.74600
O762        O  0.41326206  0.65054022  0.54302794    -0.74200
O763        O  0.46729823  0.66854187  0.67150629    -0.74700
O764        O  0.45281768  0.57883658  0.61367118    -0.74100
O765        O  0.04294462  0.67178216  0.58898559    -0.74900
O766        O  0.42997986  0.59751976  0.65163458    -0.74300
O767        O  0.01884076  0.62259182  0.57798028    -0.74700
O768        O  0.46095776  0.59307646  0.51259717    -0.74700
O769        O  0.44404443  0.62126878  0.48464352    -0.74400
C770        C  0.00378840  0.71455617  0.51159899     0.77300
C771        C  0.49248834  0.69263497  0.67322361     0.77800
C772        C  0.39897326  0.64606144  0.57737870     0.76800
C773        C  0.43561038  0.57680006  0.64368686     0.77200
C774        C  0.04272737  0.64715072  0.58554469     0.78300
C775        C  0.44874059  0.59944066  0.48266803     0.77400
Zn776      Zn  0.04538916  0.84592763  0.42756540     1.49700
Zn777      Zn  0.01133775  0.77478512  0.41022820     1.49400
Zn778      Zn  0.07721870  0.81896351  0.37305488     1.49100
Zn779      Zn  0.06795208  0.80434314  0.47086202     1.49500
O780        O  0.05030339  0.81096638  0.42049894    -1.83900
O781        O  0.00225271  0.83429881  0.41917862    -0.74500
O782        O  0.01165751  0.75583866  0.35495483    -0.74400
O783        O  0.09150627  0.85936144  0.34745453    -0.73900
O784        O  0.47827064  0.78513205  0.40774666    -0.74600
O785        O  0.06912450  0.87859455  0.38510305    -0.74200
O786        O  0.05605189  0.78867863  0.32797898    -0.74700
O787        O  0.10713526  0.80669476  0.45813954    -0.74100
O788        O  0.00166944  0.74317230  0.45480729    -0.74900
O789        O  0.11360623  0.81696455  0.38967989    -0.74300
O790        O  0.04191238  0.76372900  0.49578233    -0.74700
O791        O  0.07495243  0.83494350  0.51486790    -0.74700
O792        O  0.05943636  0.86383249  0.48538545    -0.74400
C793        C  0.47841848  0.80972830  0.41136252     0.77300
C794        C  0.03085464  0.76471033  0.32541546     0.77800
C795        C  0.08630154  0.88041206  0.35514774     0.76800
C796        C  0.12220626  0.81175198  0.42445514     0.77200
C797        C  0.01639591  0.74187642  0.48604957     0.78300
C798        C  0.07074882  0.85709707  0.51606230     0.77400
Zn799      Zn  0.25782419  0.52439342  0.58634387     1.49700
Zn800      Zn  0.19379983  0.50237839  0.62965552     1.49400
Zn801      Zn  0.22218944  0.55909396  0.57041995     1.49100
Zn802      Zn  0.19879803  0.99322455  0.53065424     1.49500
O803        O  0.21805691  0.51971591  0.57896138    -1.83900
O804        O  0.26118858  0.50919726  0.64278025    -0.74500
O805        O  0.17894485  0.52826116  0.65426457    -0.74400
O806        O  0.26544343  0.59185132  0.57350597    -0.73900
O807        O  0.21803521  0.99713353  0.67415645    -0.74600
O808        O  0.29004622  0.56747363  0.58350682    -0.74200
O809        O  0.19955219  0.56878311  0.61391318    -0.74700
O810        O  0.18991041  0.51532025  0.48536139    -0.74100
O811        O  0.15740062  0.96264556  0.61838103    -0.74900
O812        O  0.20660004  0.56050907  0.51323670    -0.74300
O813        O  0.15992296  0.95653734  0.54942871    -0.74700
O814        O  0.22596018  0.97963098  0.50409114    -0.74700
O815        O  0.26757069  0.50282666  0.54222082    -0.74400
C816        C  0.24401623  0.00020150  0.67471581     0.77300
C817        C  0.18335799  0.55402487  0.64505724     0.77800
C818        C  0.28974877  0.59167051  0.57859034     0.76800
C819        C  0.19461174  0.54193615  0.48313563     0.77200
C820        C  0.14666007  0.94755819  0.58488708     0.78300
C821        C  0.25264978  0.98583575  0.51192272     0.77400
Zn822      Zn  0.27730136  0.92123779  0.47082324     1.49700
Zn823      Zn  0.28284270  0.91200524  0.37235128     1.49400
Zn824      Zn  0.30481928  0.97761417  0.41018066     1.49100
Zn825      Zn  0.34141511  0.94289771  0.42716196     1.49500
O826        O  0.30171239  0.93860904  0.42020314    -1.83900
O827        O  0.24085025  0.88171335  0.45792526    -0.74500
O828        O  0.27364595  0.93326538  0.32766944    -0.74400
O829        O  0.28313394  0.98766129  0.45499264    -0.73900
O830        O  0.24458077  0.87546386  0.38929018    -0.74600
O831        O  0.26225208  0.94711217  0.49538488    -0.74200
O832        O  0.28580133  0.97765984  0.35474179    -0.74700
O833        O  0.37339483  0.98606387  0.42000998    -0.74100
O834        O  0.30880608  0.89775204  0.34602083    -0.74900
O835        O  0.34857475  0.51022462  0.40820580    -0.74300
O836        O  0.35035836  0.91957609  0.38404132    -0.74700
O837        O  0.34470662  0.92806341  0.48463873    -0.74700
O838        O  0.30091469  0.91457285  0.51536482    -0.74400
C839        C  0.23093308  0.86662152  0.42424646     0.77300
C840        C  0.27522535  0.95852093  0.32516610     0.77800
C841        C  0.26662046  0.97283744  0.48591724     0.76800
C842        C  0.37294478  0.50995370  0.41235843     0.77200
C843        C  0.33501697  0.90271111  0.35379615     0.78300
C844        C  0.32692935  0.91770159  0.51593169     0.77400
C845        C  0.17677798  0.78589339  0.42642664     0.80400
N846        N  0.15041208  0.78563250  0.42613318    -0.77900
C847        C  0.15035531  0.81181074  0.42571652     0.82900
N848        N  0.17658216  0.83814832  0.42531818    -0.77800
C849        C  0.20287502  0.83836245  0.42561946     0.83000
N850        N  0.20299725  0.81226105  0.42601922    -0.79500
Zn851      Zn  0.33660167  0.79155787  0.53126340     1.49700
Zn852      Zn  0.35022368  0.79600341  0.63029556     1.49400
Zn853      Zn  0.30861433  0.73208024  0.58676113     1.49100
Zn854      Zn  0.37896907  0.76830577  0.56958447     1.49500
O855        O  0.34360883  0.77209042  0.57933962    -1.83900
O856        O  0.33920308  0.83032526  0.54995088    -0.74500
O857        O  0.31871135  0.77204596  0.67347226    -0.74400
O858        O  0.27789811  0.72231379  0.54201977    -0.73900
O859        O  0.34877582  0.83343447  0.61861456    -0.74600
O860        O  0.29560419  0.76451403  0.50545525    -0.74200
O861        O  0.28839584  0.72848587  0.64244727    -0.74700
O862        O  0.36898213  0.72535946  0.57095313    -0.74100
O863        O  0.39051086  0.80892567  0.65610655    -0.74900
O864        O  0.32010515  0.70032693  0.58382960    -0.74300
O865        O  0.41084496  0.78994857  0.61344554    -0.74700
O866        O  0.39646285  0.78485744  0.51297753    -0.74700
O867        O  0.36742502  0.80072221  0.48528770    -0.74400
C868        C  0.34419166  0.84395939  0.58513612     0.77300
C869        C  0.29557110  0.74605092  0.67383987     0.77800
C870        C  0.27546323  0.73751457  0.51261133     0.76800
C871        C  0.34466100  0.70093216  0.57711948     0.77200
C872        C  0.41195608  0.80483019  0.64591217     0.78300
C873        C  0.38967163  0.79657993  0.48293853     0.77400
Zn874      Zn  0.21526241  0.68499823  0.41145028     1.49700
Zn875      Zn  0.18586343  0.71216394  0.47217448     1.49400
Zn876      Zn  0.17111650  0.70610952  0.37425448     1.49100
Zn877      Zn  0.14398450  0.64734428  0.42921291     1.49500
O878        O  0.17905324  0.68749485  0.42194155    -1.83900
O879        O  0.24680691  0.70683014  0.45612149    -0.74500
O880        O  0.18233699  0.74829260  0.45927749    -0.74400
O881        O  0.20130715  0.71517152  0.32891655    -0.73900
O882        O  0.22703767  0.72771212  0.49622823    -0.74600
O883        O  0.23424670  0.70415273  0.35602736    -0.74200
O884        O  0.17252798  0.74422630  0.39066757    -0.74700
O885        O  0.11106764  0.63812042  0.38666013    -0.74100
O886        O  0.15559720  0.68837219  0.51688573    -0.74900
O887        O  0.13076529  0.67972849  0.34879155    -0.74300
O888        O  0.12639084  0.64372619  0.48748301    -0.74700
O889        O  0.15574833  0.61593087  0.42067582    -0.74700
O890        O  0.20493365  0.64164996  0.40890378    -0.74400
C891        C  0.24845879  0.72342804  0.48679502     0.77300
C892        C  0.17708347  0.75794458  0.42548675     0.77800
C893        C  0.22524585  0.71405743  0.32628128     0.76800
C894        C  0.10946691  0.65347127  0.35657165     0.77200
C895        C  0.13331838  0.66188237  0.51822504     0.78300
C896        C  0.18038496  0.61697358  0.41265772     0.77400
C897        C  0.10365822  0.63593698  0.62548310     0.80400
N898        N  0.12142441  0.64341453  0.59076200    -0.77900
C899        C  0.11403113  0.65279839  0.55529373     0.82900
N900        N  0.08879524  0.65453512  0.55435792    -0.77800
C901        C  0.07086639  0.64701764  0.58866428     0.83000
N902        N  0.07820567  0.63758667  0.62435770    -0.79500
Zn903      Zn  0.11886214  0.57520791  0.80174538     1.49700
Zn904      Zn  0.13911914  0.63587920  0.75039379     1.49400
Zn905      Zn  0.17939641  0.60420596  0.75054302     1.49100
Zn906      Zn  0.11880459  0.57462935  0.70041866     1.49500
O907        O  0.13893721  0.59766612  0.75079189    -1.83900
O908        O  0.11208751  0.60121923  0.84196444    -0.74500
O909        O  0.18253863  0.67032649  0.74945453    -0.74400
O910        O  0.18672633  0.58477338  0.80005307    -0.73900
O911        O  0.11970342  0.64067635  0.80415496    -0.74600
O912        O  0.14298309  0.56032363  0.83300936    -0.74200
O913        O  0.20934311  0.64752723  0.75093258    -0.74700
O914        O  0.14310339  0.55936197  0.67006435    -0.74100
O915        O  0.11900676  0.63974799  0.69697128    -0.74900
O916        O  0.18767676  0.58614361  0.70013008    -0.74300
O917        O  0.11174260  0.60023226  0.65947297    -0.74700
O918        O  0.07895166  0.53931885  0.71637833    -0.74700
O919        O  0.07889137  0.53973374  0.78663224    -0.74400
C920        C  0.11212879  0.62570077  0.83839267     0.77300
C921        C  0.20757578  0.67108157  0.74998319     0.77800
C922        C  0.17017170  0.56713431  0.82888136     0.76800
C923        C  0.17071800  0.56745782  0.67267720     0.77200
C924        C  0.11148142  0.62459945  0.66287321     0.78300
C925        C  0.06641047  0.52838754  0.75157678     0.77400
C926        C  0.10419595  0.63702272  0.87571561     0.80400
N927        N  0.07856244  0.63828926  0.87683570    -0.77900
C928        C  0.07018751  0.64624683  0.91307378     0.82900
N929        N  0.08758338  0.65301698  0.94783641    -0.77800
C930        C  0.11322071  0.65202728  0.94672978     0.83000
N931        N  0.12144972  0.64387233  0.91080094    -0.79500
C932        C  0.34336184  0.67148021  0.92072154     0.80400
N933        N  0.36963480  0.67151966  0.92133869    -0.77900
C934        C  0.36971060  0.64534128  0.92302719     0.82900
N935        N  0.34332987  0.61906513  0.92465902    -0.77800
C936        C  0.31706965  0.61898155  0.92379723     0.83000
N937        N  0.31710764  0.64512225  0.92145209    -0.79500
Zn938      Zn  0.48780118  0.63982218  0.87032891     1.49700
Zn939      Zn  0.49686641  0.65379431  0.96906837     1.49400
Zn940      Zn  0.46558044  0.68135612  0.91261274     1.49100
Zn941      Zn  0.43091442  0.61083107  0.93004037     1.49500
O942        O  0.47029065  0.64641793  0.92084080    -1.83900
O943        O  0.02695306  0.64228250  0.88192044    -0.74500
O944        O  0.01039859  0.69458913  0.99495057    -0.74400
O945        O  0.48174205  0.70064121  0.85636664    -0.73900
O946        O  0.03345963  0.65163021  0.95063622    -0.74600
O947        O  0.49446760  0.66990170  0.82602210    -0.74200
O948        O  0.48695576  0.71254434  0.95678229    -0.74700
O949        O  0.39808305  0.62112330  0.92820760    -0.74100
O950        O  0.47505869  0.62298261  0.01493359    -0.74900
O951        O  0.42230411  0.67003503  0.91585826    -0.74300
O952        O  0.42991667  0.59381167  0.98717142    -0.74700
O953        O  0.42105976  0.57844883  0.88628319    -0.74700
O954        O  0.46136375  0.59941879  0.84538578    -0.74400
C955        C  0.04212887  0.64684892  0.91531336     0.77300
C956        C  0.00399775  0.71483444  0.98701424     0.77800
C957        C  0.49160258  0.69286828  0.82503239     0.76800
C958        C  0.39816272  0.64548493  0.92239909     0.77200
C959        C  0.44851856  0.60070286  0.01726167     0.78300
C960        C  0.43571600  0.57755507  0.85460139     0.77400
Zn961      Zn  0.01140401  0.77429674  0.08900218     1.49700
Zn962      Zn  0.06821331  0.80419366  0.02846768     1.49400
Zn963      Zn  0.04505302  0.84562186  0.07148198     1.49100
Zn964      Zn  0.07705022  0.81904050  0.12628104     1.49500
O965        O  0.05024677  0.81077868  0.07870947    -1.83900
O966        O  0.00184529  0.74291511  0.04411672    -0.74500
O967        O  0.07522176  0.83468315  0.98434430    -0.74400
O968        O  0.00165007  0.83336976  0.07954756    -0.73900
O969        O  0.04235969  0.76348338  0.00342086    -0.74600
O970        O  0.47806820  0.78427230  0.09155265    -0.74200
O971        O  0.05926290  0.86341086  0.01337322    -0.74700
O972        O  0.09081599  0.85939004  0.15195097    -0.74100
O973        O  0.10751390  0.80689806  0.04143609    -0.74900
O974        O  0.06840592  0.87852483  0.11434450    -0.74300
O975        O  0.11381540  0.81751652  0.10980985    -0.74700
O976        O  0.05591386  0.78855945  0.17126719    -0.74700
O977        O  0.01181966  0.75520611  0.14414630    -0.74400
C978        C  0.01674387  0.74174152  0.01299035     0.77300
C979        C  0.07081689  0.85669824  0.98284787     0.77800
C980        C  0.47794270  0.80870547  0.08756739     0.76800
C981        C  0.08550874  0.88038304  0.14440019     0.77200
C982        C  0.12257491  0.81225322  0.07513233     0.78300
C983        C  0.03092312  0.76433170  0.17376968     0.77400
Zn984      Zn  0.24224662  0.53706611  0.97214591     1.49700
Zn985      Zn  0.21443737  0.98017233  0.91182267     1.49400
Zn986      Zn  0.17712764  0.51386617  0.93011131     1.49100
Zn987      Zn  0.23546864  0.54533170  0.87449720     1.49500
O988        O  0.21713233  0.51890644  0.92240316    -1.83900
O989        O  0.25657226  0.51087644  0.99732820    -0.74500
O990        O  0.17097000  0.94711606  0.90955940    -0.74400
O991        O  0.17405987  0.52851999  0.98807175    -0.73900
O992        O  0.23655451  0.97071388  0.95615596    -0.74600
O993        O  0.21919968  0.54495648  0.01628316    -0.74200
O994        O  0.14553451  0.97050147  0.92261162    -0.74700
O995        O  0.20923090  0.55905761  0.84908332    -0.74100
O996        O  0.23334950  0.98027652  0.85628296    -0.74900
O997        O  0.16760763  0.53695025  0.88708542    -0.74300
O998        O  0.24411306  0.52423753  0.82930625    -0.74700
O999        O  0.27407082  0.58193523  0.88980300    -0.74700
O1000       O  0.27946619  0.57600251  0.95792196    -0.74400
C1001       C  0.25270772  0.98536955  0.98744084     0.77300
C1002       C  0.14639236  0.94691921  0.91408468     0.77800
C1003       C  0.19269210  0.54051658  0.01814207     0.76800
C1004       C  0.18293365  0.55382154  0.85677541     0.77200
C1005       C  0.24314073  0.99930813  0.82659735     0.78300
C1006       C  0.28876273  0.59081984  0.92390443     0.77400
Zn1007     Zn  0.28369253  0.91231075  0.12609817     1.49700
Zn1008     Zn  0.34262191  0.94392530  0.07142468     1.49400
Zn1009     Zn  0.27825246  0.92120817  0.02781133     1.49100
Zn1010     Zn  0.30519729  0.97766689  0.08872863     1.49500
O1011       O  0.30258275  0.93892821  0.07837400    -1.83900
O1012       O  0.30982657  0.89814902  0.15174003    -0.74500
O1013       O  0.34628512  0.92933907  0.01375629    -0.74400
O1014       O  0.24142807  0.88184287  0.04082930    -0.73900
O1015       O  0.35163173  0.92045442  0.11412110    -0.74600
O1016       O  0.24532142  0.87574185  0.10938712    -0.74200
O1017       O  0.30190764  0.91408392  0.98382110    -0.74700
O1018       O  0.28342831  0.98725445  0.04405933    -0.74100
O1019       O  0.37420759  0.98726098  0.07965721    -0.74900
O1020       O  0.26355491  0.94715241  0.00280447    -0.74300
O1021       O  0.34871454  0.51075702  0.09143455    -0.74700
O1022       O  0.28566333  0.97744531  0.14380719    -0.74700
O1023       O  0.27438986  0.93341834  0.17113205    -0.74400
C1024       C  0.33612610  0.90328280  0.14403939     0.77300
C1025       C  0.32822681  0.91799020  0.98294919     0.77800
C1026       C  0.23150285  0.86685703  0.07459505     0.76800
C1027       C  0.26734356  0.97262307  0.01272132     0.77200
C1028       C  0.37332175  0.51090064  0.08768899     0.78300
C1029       C  0.27541747  0.95842799  0.17350771     0.77400
C1030       C  0.17695669  0.78614466  0.07395839     0.80400
N1031       N  0.20325190  0.81245205  0.07379143    -0.77900
C1032       C  0.20329316  0.83864692  0.07356633     0.82900
N1033       N  0.17704908  0.83857220  0.07384942    -0.77800
C1034       C  0.15073832  0.81228056  0.07404550     0.83000
N1035       N  0.15067367  0.78604037  0.07420359    -0.79500
Zn1036     Zn  0.37817012  0.76702700  0.92944947     1.49700
Zn1037     Zn  0.33620158  0.79079516  0.96810067     1.49400
Zn1038     Zn  0.35018644  0.79520569  0.86904117     1.49100
Zn1039     Zn  0.30770053  0.73141009  0.91242163     1.49500
O1040       O  0.34305061  0.77119422  0.91994263    -1.83900
O1041       O  0.39533692  0.78281644  0.98651978    -0.74500
O1042       O  0.33937649  0.82982357  0.94929948    -0.74400
O1043       O  0.39036508  0.80772513  0.84323389    -0.73900
O1044       O  0.36693746  0.79959856  0.01398834    -0.74600
O1045       O  0.41057838  0.78889046  0.88612967    -0.74200
O1046       O  0.34924740  0.83285206  0.88068330    -0.74700
O1047       O  0.28768339  0.72846104  0.85696110    -0.74100
O1048       O  0.29510402  0.76396451  0.99421470    -0.74900
O1049       O  0.31882654  0.77169989  0.82578154    -0.74300
O1050       O  0.27710296  0.72170252  0.95766300    -0.74700
O1051       O  0.31871939  0.69925474  0.91413816    -0.74700
O1052       O  0.36763728  0.72404856  0.92666763    -0.74400
C1053       C  0.38880543  0.79487428  0.01648890     0.77300
C1054       C  0.34468280  0.84349237  0.91410669     0.77800
C1055       C  0.41179356  0.80369160  0.85356575     0.76800
C1056       C  0.29533858  0.74598364  0.82548970     0.77200
C1057       C  0.27485042  0.73696735  0.98723716     0.78300
C1058       C  0.34325765  0.69973424  0.92029233     0.77400
Zn1059     Zn  0.14340611  0.64739559  0.07251727     1.49700
Zn1060     Zn  0.17104917  0.70641201  0.12689713     1.49400
Zn1061     Zn  0.21473935  0.68453960  0.08907669     1.49100
Zn1062     Zn  0.18537236  0.71177526  0.02880353     1.49500
O1063       O  0.17870092  0.68742310  0.07922887    -1.83900
O1064       O  0.11105941  0.63843198  0.11561233    -0.74500
O1065       O  0.20136185  0.71539364  0.17179050    -0.74400
O1066       O  0.20395874  0.64095313  0.09104471    -0.73900
O1067       O  0.13080369  0.68023139  0.15310346    -0.74600
O1068       O  0.15467322  0.61571217  0.08030267    -0.74200
O1069       O  0.23369363  0.70343712  0.14465077    -0.74700
O1070       O  0.22644945  0.72718870  0.00422375    -0.74100
O1071       O  0.17272302  0.74466152  0.11025956    -0.74900
O1072       O  0.24636166  0.70647853  0.04418699    -0.74300
O1073       O  0.18193453  0.74802691  0.04145748    -0.74700
O1074       O  0.15500575  0.68762094  0.98452416    -0.74700
O1075       O  0.12526969  0.64348559  0.01488177    -0.74400
C1076       C  0.10956861  0.65387079  0.14567790     0.77300
C1077       C  0.22501469  0.71376609  0.17435088     0.77800
C1078       C  0.17920435  0.61642872  0.08757652     0.76800
C1079       C  0.24792331  0.72296576  0.01343966     0.77200
C1080       C  0.17707587  0.75808576  0.07523368     0.78300
C1081       C  0.13242542  0.66130132  0.98375290     0.77400
C1082       C  0.41743508  0.82185244  0.37430735     0.80400
N1083       N  0.40053798  0.81500095  0.40987738    -0.77900
C1084       C  0.40810053  0.80504927  0.44465915     0.82900
N1085       N  0.43293432  0.80254380  0.44401239    -0.77800
C1086       C  0.45019356  0.80976063  0.40906139     0.83000
N1087       N  0.44248124  0.81945371  0.37400447    -0.79500
Zn1088     Zn  0.40067467  0.88212534  0.19849855     1.49700
Zn1089     Zn  0.40001944  0.88187285  0.30024539     1.49400
Zn1090     Zn  0.34005301  0.85207602  0.24870968     1.49100
Zn1091     Zn  0.38190678  0.82181361  0.24956705     1.49500
O1092       O  0.38071379  0.85932402  0.24920364    -1.83900
O1093       O  0.44042801  0.91751116  0.21467285    -0.74500
O1094       O  0.37524769  0.89654692  0.33036361    -0.74400
O1095       O  0.33202790  0.87089533  0.19903433    -0.73900
O1096       O  0.43982753  0.91736375  0.28497754    -0.74600
O1097       O  0.37629898  0.89715472  0.16796535    -0.74200
O1098       O  0.33143397  0.87086848  0.29807888    -0.74700
O1099       O  0.33909164  0.78647438  0.25023487    -0.74100
O1100       O  0.40728783  0.85650256  0.34130661    -0.74900
O1101       O  0.31135917  0.80834516  0.24879390    -0.74300
O1102       O  0.40252166  0.81842531  0.30269161    -0.74700
O1103       O  0.40184577  0.81787310  0.19605898    -0.74700
O1104       O  0.40798620  0.85653776  0.15761229    -0.74400
C1105       C  0.45263952  0.92853048  0.25000671     0.77300
C1106       C  0.34789708  0.88918508  0.32632903     0.77800
C1107       C  0.34883465  0.88957449  0.17136403     0.76800
C1108       C  0.31379479  0.78512737  0.24965601     0.77200
C1109       C  0.40897635  0.83294477  0.33727864     0.78300
C1110       C  0.40886824  0.83253209  0.16158539     0.77400
C1111       C  0.41706568  0.82104452  0.12465867     0.80400
N1112       N  0.39992777  0.81374685  0.08934448    -0.77900
C1113       C  0.40723853  0.80332308  0.05473328     0.82900
N1114       N  0.43207330  0.80079713  0.05529638    -0.77800
C1115       C  0.44957535  0.80847756  0.09000425     0.83000
N1116       N  0.44210410  0.81865001  0.12485188    -0.79500
C1117       C  0.75494697  0.49458936  0.71393255     0.80400
N1118       N  0.77953523  0.49165835  0.71412404    -0.77900
C1119       C  0.79106884  0.48896364  0.75111866     0.82900
N1120       N  0.77822062  0.48977882  0.78806062    -0.77800
C1121       C  0.75376466  0.49296615  0.78781020     0.83000
N1122       N  0.74243418  0.49569733  0.75081947    -0.79500
C1123       C  0.76531085  0.46546760  0.21238909     0.80400
N1124       N  0.74342322  0.47263423  0.21224941    -0.77900
C1125       C  0.73253596  0.47648445  0.24928673     0.82900
N1126       N  0.74344042  0.47280203  0.28633875    -0.77800
C1127       C  0.76532122  0.46563708  0.28625698     0.83000
N1128       N  0.77554927  0.46124797  0.24934021    -0.79500
C1129       C  0.74218794  0.22383144  0.28716708     0.80400
N1130       N  0.72745498  0.21349654  0.25030686    -0.77900
C1131       C  0.74207040  0.22359111  0.21328191     0.82900
N1132       N  0.77127523  0.24541873  0.21302838    -0.77800
C1133       C  0.78606927  0.25640011  0.24994280     0.83000
N1134       N  0.77141814  0.24565021  0.28706701    -0.79500
C1135       C  0.77790809  0.23560398  0.78668110     0.80400
N1136       N  0.79165647  0.24772366  0.74966433    -0.77900
C1137       C  0.77800860  0.23550593  0.71265269     0.82900
N1138       N  0.75004847  0.21109877  0.71268561    -0.77800
C1139       C  0.73560034  0.19959611  0.74973573     0.83000
N1140       N  0.74997378  0.21124007  0.78669602    -0.79500
C1141       C  0.50782100  0.25288709  0.74854932     0.80400
N1142       N  0.50551529  0.23857571  0.71162009    -0.77900
C1143       C  0.50005472  0.21003342  0.71195152     0.82900
N1144       N  0.49640112  0.19576613  0.74903409    -0.77800
C1145       C  0.49851746  0.20982999  0.78588070     0.83000
N1146       N  0.50355400  0.23818888  0.78558377    -0.79500
C1147       C  0.51344044  0.20383395  0.25002287     0.80400
N1148       N  0.51710780  0.21833681  0.21285574    -0.77900
C1149       C  0.52401627  0.24734766  0.21276204     0.82900
N1150       N  0.52816231  0.26199984  0.24959740    -0.77800
C1151       C  0.52391057  0.24756515  0.28661132     0.83000
N1152       N  0.51700400  0.21857861  0.28693258    -0.79500
C1153       C  0.53465807  0.47572190  0.25196898     0.80400
N1154       N  0.50680597  0.45133171  0.25131420    -0.77900
C1155       C  0.98248928  0.45473057  0.25049522     0.82900
N1156       N  0.98599882  0.48249901  0.25023232    -0.77800
C1157       C  0.51386859  0.00689140  0.25082458     0.83000
N1158       N  0.53821018  0.00351785  0.25169853    -0.79500
C1159       C  0.98442081  0.47926467  0.75088832     0.80400
N1160       N  0.51199542  0.00419301  0.75133287    -0.77900
C1161       C  0.53686322  0.00170853  0.75168342     0.82900
N1162       N  0.53425232  0.47432913  0.75152029    -0.77800
C1163       C  0.50676805  0.44944144  0.75109997     0.83000
N1164       N  0.98188253  0.45188084  0.75074223    -0.79500
C1165       C  0.94636045  0.07243727  0.12542279     0.80400
N1166       N  0.95623258  0.08974144  0.09021943    -0.77900
C1167       C  0.93860578  0.08217058  0.05543190     0.82900
N1168       N  0.91136862  0.05696046  0.05572511    -0.77800
C1169       C  0.90156151  0.03929812  0.09026255     0.83000
N1170       N  0.91904573  0.04700042  0.12530297    -0.79500
Zn1171     Zn  0.55447913  0.14938348  0.25120503     1.49700
Zn1172     Zn  0.48215534  0.10791693  0.25034261     1.49400
Zn1173     Zn  0.52359578  0.08892934  0.19993930     1.49100
Zn1174     Zn  0.52360832  0.08891786  0.30136612     1.49500
O1175       O  0.52074328  0.10874854  0.25069248    -1.83900
O1176       O  0.53992209  0.17841197  0.25091367    -0.74500
O1177       O  0.95820169  0.08781755  0.19684745    -0.74400
O1178       O  0.56313845  0.11360206  0.16964572    -0.73900
O1179       O  0.49007756  0.15081302  0.25020291    -0.74600
O1180       O  0.58161661  0.15754244  0.20164140    -0.74200
O1181       O  0.49090431  0.08168690  0.15877594    -0.74700
O1182       O  0.51920077  0.04927085  0.28578856    -0.74100
O1183       O  0.95787026  0.08747626  0.30346987    -0.74900
O1184       O  0.51896831  0.04909916  0.21552883    -0.74300
O1185       O  0.49047182  0.08128865  0.34163093    -0.74700
O1186       O  0.56291969  0.11328537  0.33246875    -0.74700
O1187       O  0.58141991  0.15735299  0.30101747    -0.74400
C1188       C  0.51425710  0.17608112  0.25038053     0.77300
C1189       C  0.96596447  0.08078516  0.16248936     0.77800
C1190       C  0.58324523  0.14098813  0.17341882     0.76800
C1191       C  0.51760625  0.03668153  0.25068766     0.77200
C1192       C  0.96548676  0.08023951  0.33771650     0.78300
C1193       C  0.58303735  0.14068281  0.32900741     0.77400
C1194       C  0.94583786  0.07167769  0.37468198     0.80400
N1195       N  0.95590693  0.08866799  0.41006149    -0.77900
C1196       C  0.93874119  0.08056052  0.44528061     0.82900
N1197       N  0.91157824  0.05531015  0.44534356    -0.77800
C1198       C  0.90141843  0.03810320  0.41032019     0.83000
N1199       N  0.91856587  0.04621646  0.37484110    -0.79500
C1200       C  0.57467895  0.38474692  0.62430722     0.80400
N1201       N  0.60165109  0.41054477  0.62337567    -0.77900
C1202       C  0.61801825  0.41924354  0.58710119     0.82900
N1203       N  0.60738473  0.40197242  0.55218606    -0.77800
C1204       C  0.58070511  0.37618670  0.55315856     0.83000
N1205       N  0.56427987  0.36765566  0.58907356    -0.79500
Zn1206     Zn  0.53939452  0.34884151  0.74926077     1.49700
Zn1207     Zn  0.99779818  0.36759582  0.80010804     1.49400
Zn1208     Zn  0.99796129  0.36817163  0.69974377     1.49100
Zn1209     Zn  0.96697358  0.30724936  0.74928903     1.49500
O1210       O  0.00081844  0.34795116  0.74960142    -1.83900
O1211       O  0.56340975  0.36896741  0.80286362    -0.74500
O1212       O  0.00239866  0.40738332  0.78558646    -0.74400
O1213       O  0.53037771  0.37518256  0.65838617    -0.73900
O1214       O  0.53031046  0.37454767  0.84094282    -0.74600
O1215       O  0.56342796  0.36926876  0.69584839    -0.74200
O1216       O  0.00278445  0.40790101  0.71542799    -0.74700
O1217       O  0.93998278  0.29942274  0.69963185    -0.74100
O1218       O  0.95799622  0.34330463  0.82938836    -0.74900
O1219       O  0.95804357  0.34431525  0.67064704    -0.74300
O1220       O  0.93993243  0.29873050  0.79932656    -0.74700
O1221       O  0.98133810  0.27823054  0.74848987    -0.74700
O1222       O  0.53119703  0.30584695  0.74859523    -0.74400
C1223       C  0.55540103  0.37578006  0.83722226     0.77300
C1224       C  0.00392521  0.42007828  0.75068849     0.77800
C1225       C  0.55541375  0.37625266  0.66172847     0.76800
C1226       C  0.93817052  0.31680961  0.67316432     0.77200
C1227       C  0.93812978  0.31582832  0.82641313     0.78300
C1228       C  0.00699086  0.28058418  0.74830432     0.77400
C1229       C  0.57473210  0.38428422  0.87450351     0.80400
N1230       N  0.56434861  0.36720514  0.90977632    -0.77900
C1231       C  0.58086555  0.37566090  0.94557267     0.82900
N1232       N  0.60768157  0.40129301  0.94629730    -0.77800
C1233       C  0.61818371  0.41854516  0.91140127     0.83000
N1234       N  0.60169075  0.41012599  0.87534567    -0.79500
C1235       C  0.85148355  0.41504194  0.62422506     0.80400
N1236       N  0.85189691  0.38895197  0.62310576    -0.77900
C1237       C  0.84442307  0.37245354  0.58698399     0.82900
N1238       N  0.83684648  0.38228540  0.55216043    -0.77800
C1239       C  0.83619982  0.40807550  0.55323967     0.83000
N1240       N  0.84334085  0.42430336  0.58922944    -0.79500
Zn1241     Zn  0.93143571  0.02240026  0.74888828     1.49700
Zn1242     Zn  0.88931695  0.45029035  0.74927054     1.49400
Zn1243     Zn  0.87050073  0.99186797  0.80027142     1.49100
Zn1244     Zn  0.87020119  0.99230161  0.70010984     1.49500
O1245       O  0.89036144  0.98892993  0.74968564    -1.83900
O1246       O  0.96068313  0.00793615  0.75066800    -0.74500
O1247       O  0.86970220  0.42611277  0.80318405    -0.74400
O1248       O  0.89576366  0.03056163  0.83192076    -0.73900
O1249       O  0.93186409  0.45834322  0.74938588    -0.74600
O1250       O  0.93905356  0.05010764  0.79767967    -0.74200
O1251       O  0.86151830  0.45818178  0.83925422    -0.74700
O1252       O  0.83150616  0.98964947  0.71599747    -0.74100
O1253       O  0.86967003  0.42678453  0.69505970    -0.74900
O1254       O  0.83155891  0.98943355  0.78600807    -0.74300
O1255       O  0.86096990  0.45883369  0.65993792    -0.74700
O1256       O  0.89514973  0.03165719  0.66967720    -0.74700
O1257       O  0.94015903  0.04841129  0.69771766    -0.74400
C1258       C  0.95756405  0.98195684  0.75030452     0.77300
C1259       C  0.86141943  0.43361808  0.83670521     0.77800
C1260       C  0.92283068  0.05119980  0.82698935     0.76800
C1261       C  0.81931676  0.98895543  0.75110082     0.77200
C1262       C  0.86101983  0.43430152  0.66197416     0.78300
C1263       C  0.92299540  0.05067692  0.67129314     0.77400
C1264       C  0.85217663  0.41449513  0.87453146     0.80400
N1265       N  0.84438366  0.42405999  0.90961150    -0.77900
C1266       C  0.83750891  0.40815227  0.94580242     0.82900
N1267       N  0.83797776  0.38227787  0.94700802    -0.77800
C1268       C  0.84524405  0.37213723  0.91212669     0.83000
N1269       N  0.85251207  0.38836876  0.87576139    -0.79500
C1270       C  0.66753422  0.04373343  0.12590317     0.80400
N1271       N  0.67457005  0.03361212  0.09071415    -0.77900
C1272       C  0.68392173  0.05068177  0.05546264     0.82900
N1273       N  0.68602905  0.07782188  0.05517783    -0.77800
C1274       C  0.67889866  0.08806885  0.09000227     0.83000
N1275       N  0.66953734  0.07098582  0.12550648    -0.79500
Zn1276     Zn  0.63670829  0.43563850  0.24963756     1.49700
Zn1277     Zn  0.60748751  0.46637146  0.30154291     1.49400
Zn1278     Zn  0.66799295  0.50782262  0.25017828     1.49100
Zn1279     Zn  0.60672537  0.46612238  0.20000731     1.49500
O1280       O  0.62989394  0.46924135  0.25034224    -1.83900
O1281       O  0.61788708  0.40854968  0.29918614    -0.74500
O1282       O  0.63336241  0.49935888  0.34213352    -0.74400
O1283       O  0.70305976  0.49994799  0.24974584    -0.73900
O1284       O  0.59269159  0.42691694  0.33192208    -0.74600
O1285       O  0.68039717  0.45016589  0.24920082    -0.74200
O1286       O  0.67214341  0.03200894  0.30354289    -0.74700
O1287       O  0.63212288  0.49933967  0.15949997    -0.74100
O1288       O  0.57205260  0.47079637  0.28672989    -0.74900
O1289       O  0.67165951  0.03185599  0.19699610    -0.74300
O1290       O  0.57151550  0.47039829  0.21646624    -0.74700
O1291       O  0.59157678  0.42670369  0.16877041    -0.74700
O1292       O  0.61746492  0.40864477  0.19999698    -0.74400
C1293       C  0.59983766  0.40685007  0.32771591     0.77300
C1294       C  0.65743538  0.02437682  0.33803398     0.77800
C1295       C  0.70396033  0.47577788  0.24935377     0.76800
C1296       C  0.65639542  0.02424748  0.16304058     0.77200
C1297       C  0.56076046  0.47207494  0.25175483     0.78300
C1298       C  0.59901636  0.40679846  0.17209389     0.77400
C1299       C  0.66886783  0.04414334  0.37492306     0.80400
N1300       N  0.67081166  0.07137494  0.37499960    -0.77900
C1301       C  0.68057081  0.08885600  0.41009531     0.82900
N1302       N  0.68832472  0.07910582  0.44471658    -0.77800
C1303       C  0.68618670  0.05192849  0.44500189     0.83000
N1304       N  0.67614973  0.03433846  0.41018900    -0.79500
C1305       C  0.84479725  0.17266923  0.57675077     0.80400
N1306       N  0.81847603  0.14634322  0.57774294    -0.77900
C1307       C  0.81823293  0.12003800  0.57848615     0.82900
N1308       N  0.84450263  0.12010465  0.57868440    -0.77800
C1309       C  0.87087871  0.14630606  0.57730989     0.83000
N1310       N  0.87104320  0.17260346  0.57613893    -0.79500
Zn1311     Zn  0.95208726  0.15236459  0.52849430     1.49700
Zn1312     Zn  0.50991736  0.18215173  0.58726836     1.49400
Zn1313     Zn  0.94464654  0.13829041  0.62661473     1.49100
Zn1314     Zn  0.97568797  0.11110335  0.57038624     1.49500
O1315       O  0.97070385  0.14599410  0.57809333    -1.83900
O1316       O  0.97804938  0.19278759  0.50248077    -0.74500
O1317       O  0.51088320  0.20162560  0.64267778    -0.74400
O1318       O  0.90825709  0.14106891  0.61174551    -0.73900
O1319       O  0.51883040  0.21329283  0.54244399    -0.74600
O1320       O  0.91326212  0.15054027  0.54302791    -0.74200
O1321       O  0.96729820  0.16854190  0.67150628    -0.74700
O1322       O  0.95281770  0.07883654  0.61367116    -0.74100
O1323       O  0.54294463  0.17178214  0.58898544    -0.74900
O1324       O  0.92997977  0.09751973  0.65163456    -0.74300
O1325       O  0.51884076  0.12259180  0.57798024    -0.74700
O1326       O  0.96095771  0.09307643  0.51259721    -0.74700
O1327       O  0.94404445  0.12126881  0.48464353    -0.74400
C1328       C  0.50378838  0.21455616  0.51159900     0.77300
C1329       C  0.99248833  0.19263502  0.67322362     0.77800
C1330       C  0.89897320  0.14606135  0.57737858     0.76800
C1331       C  0.93561037  0.07680001  0.64368701     0.77200
C1332       C  0.54272739  0.14715069  0.58554468     0.78300
C1333       C  0.94874065  0.09944069  0.48266796     0.77400
Zn1334     Zn  0.54538914  0.34592767  0.42756540     1.49700
Zn1335     Zn  0.51133773  0.27478516  0.41022819     1.49400
Zn1336     Zn  0.57721870  0.31896354  0.37305489     1.49100
Zn1337     Zn  0.56795206  0.30434312  0.47086202     1.49500
O1338       O  0.55030344  0.31096643  0.42049894    -1.83900
O1339       O  0.50225272  0.33429880  0.41917862    -0.74500
O1340       O  0.51165750  0.25583862  0.35495476    -0.74400
O1341       O  0.59150625  0.35936152  0.34745453    -0.73900
O1342       O  0.97827065  0.28513214  0.40774667    -0.74600
O1343       O  0.56912453  0.37859465  0.38510298    -0.74200
O1344       O  0.55605196  0.28867871  0.32797905    -0.74700
O1345       O  0.60713529  0.30669477  0.45813951    -0.74100
O1346       O  0.50166941  0.24317225  0.45480737    -0.74900
O1347       O  0.61360616  0.31696451  0.38967988    -0.74300
O1348       O  0.54191243  0.26372902  0.49578227    -0.74700
O1349       O  0.57495235  0.33494349  0.51486794    -0.74700
O1350       O  0.55943635  0.36383244  0.48538542    -0.74400
C1351       C  0.97841853  0.30972830  0.41136251     0.77300
C1352       C  0.53085461  0.26471033  0.32541541     0.77800
C1353       C  0.58630157  0.38041225  0.35514780     0.76800
C1354       C  0.62220625  0.31175203  0.42445508     0.77200
C1355       C  0.51639596  0.24187644  0.48604955     0.78300
C1356       C  0.57074874  0.35709699  0.51606228     0.77400
Zn1357     Zn  0.75782410  0.02439337  0.58634387     1.49700
Zn1358     Zn  0.69379980  0.00237842  0.62965558     1.49400
Zn1359     Zn  0.72218941  0.05909395  0.57041994     1.49100
Zn1360     Zn  0.69879806  0.49322459  0.53065424     1.49500
O1361       O  0.71805690  0.01971586  0.57896137    -1.83900
O1362       O  0.76118855  0.00919719  0.64278024    -0.74500
O1363       O  0.67894485  0.02826120  0.65426456    -0.74400
O1364       O  0.76544348  0.09185139  0.57350599    -0.73900
O1365       O  0.71803520  0.49713347  0.67415638    -0.74600
O1366       O  0.79004621  0.06747361  0.58350683    -0.74200
O1367       O  0.69955216  0.06878305  0.61391319    -0.74700
O1368       O  0.68991037  0.01532029  0.48536137    -0.74100
O1369       O  0.65740065  0.46264552  0.61838109    -0.74900
O1370       O  0.70660008  0.06050910  0.51323669    -0.74300
O1371       O  0.65992296  0.45653729  0.54942869    -0.74700
O1372       O  0.72596027  0.47963106  0.50409110    -0.74700
O1373       O  0.76757062  0.00282656  0.54222085    -0.74400
C1374       C  0.74401618  0.50020144  0.67471567     0.77300
C1375       C  0.68335794  0.05402480  0.64505717     0.77800
C1376       C  0.78974873  0.09167059  0.57859031     0.76800
C1377       C  0.69461172  0.04193623  0.48313570     0.77200
C1378       C  0.64665998  0.44755807  0.58488703     0.78300
C1379       C  0.75264986  0.48583584  0.51192267     0.77400
Zn1380     Zn  0.77730138  0.42123785  0.47082324     1.49700
Zn1381     Zn  0.78284264  0.41200520  0.37235128     1.49400
Zn1382     Zn  0.80481932  0.47761424  0.41018061     1.49100
Zn1383     Zn  0.84141502  0.44289766  0.42716193     1.49500
O1384       O  0.80171240  0.43860900  0.42020316    -1.83900
O1385       O  0.74085023  0.38171340  0.45792524    -0.74500
O1386       O  0.77364591  0.43326537  0.32766950    -0.74400
O1387       O  0.78313401  0.48766138  0.45499265    -0.73900
O1388       O  0.74458080  0.37546389  0.38929017    -0.74600
O1389       O  0.76225217  0.44711230  0.49538490    -0.74200
O1390       O  0.78580137  0.47765990  0.35474175    -0.74700
O1391       O  0.87339481  0.48606385  0.42001002    -0.74100
O1392       O  0.80880611  0.39775204  0.34602080    -0.74900
O1393       O  0.84857480  0.01022458  0.40820582    -0.74300
O1394       O  0.85035838  0.41957613  0.38404127    -0.74700
O1395       O  0.84470658  0.42806334  0.48463869    -0.74700
O1396       O  0.80091472  0.41457291  0.51536484    -0.74400
C1397       C  0.73093304  0.36662159  0.42424643     0.77300
C1398       C  0.77522534  0.45852100  0.32516616     0.77800
C1399       C  0.76662052  0.47283750  0.48591715     0.76800
C1400       C  0.87294479  0.00995365  0.41235837     0.77200
C1401       C  0.83501692  0.40271106  0.35379627     0.78300
C1402       C  0.82692932  0.41770153  0.51593169     0.77400
C1403       C  0.67677796  0.28589341  0.42642662     0.80400
N1404       N  0.65041203  0.28563245  0.42613319    -0.77900
C1405       C  0.65035541  0.31181080  0.42571657     0.82900
N1406       N  0.67658215  0.33814832  0.42531823    -0.77800
C1407       C  0.70287491  0.33836240  0.42561953     0.83000
N1408       N  0.70299729  0.31226105  0.42601930    -0.79500
Zn1409     Zn  0.83660173  0.29155793  0.53126338     1.49700
Zn1410     Zn  0.85022373  0.29600345  0.63029558     1.49400
Zn1411     Zn  0.80861440  0.23208033  0.58676112     1.49100
Zn1412     Zn  0.87896915  0.26830583  0.56958445     1.49500
O1413       O  0.84360883  0.27209037  0.57933960    -1.83900
O1414       O  0.83920312  0.33032528  0.54995086    -0.74500
O1415       O  0.81871129  0.27204594  0.67347225    -0.74400
O1416       O  0.77789817  0.22231378  0.54201978    -0.73900
O1417       O  0.84877579  0.33343443  0.61861459    -0.74600
O1418       O  0.79560429  0.26451411  0.50545532    -0.74200
O1419       O  0.78839576  0.22848583  0.64244719    -0.74700
O1420       O  0.86898218  0.22535948  0.57095315    -0.74100
O1421       O  0.89051083  0.30892561  0.65610649    -0.74900
O1422       O  0.82010526  0.20032700  0.58382964    -0.74300
O1423       O  0.91084500  0.28994854  0.61344547    -0.74700
O1424       O  0.89646283  0.28485744  0.51297753    -0.74700
O1425       O  0.86742508  0.30072226  0.48528769    -0.74400
C1426       C  0.84419168  0.34395942  0.58513620     0.77300
C1427       C  0.79557103  0.24605082  0.67383995     0.77800
C1428       C  0.77546330  0.23751460  0.51261140     0.76800
C1429       C  0.84466102  0.20093229  0.57711929     0.77200
C1430       C  0.91195616  0.30483019  0.64591217     0.78300
C1431       C  0.88967167  0.29657988  0.48293853     0.77400
Zn1432     Zn  0.71526243  0.18499826  0.41145032     1.49700
Zn1433     Zn  0.68586346  0.21216392  0.47217444     1.49400
Zn1434     Zn  0.67111643  0.20610947  0.37425446     1.49100
Zn1435     Zn  0.64398446  0.14734422  0.42921291     1.49500
O1436       O  0.67905327  0.18749489  0.42194155    -1.83900
O1437       O  0.74680688  0.20683010  0.45612144    -0.74500
O1438       O  0.68233706  0.24829263  0.45927751    -0.74400
O1439       O  0.70130713  0.21517153  0.32891650    -0.73900
O1440       O  0.72703771  0.22771213  0.49622819    -0.74600
O1441       O  0.73424669  0.20415271  0.35602736    -0.74200
O1442       O  0.67252794  0.24422627  0.39066753    -0.74700
O1443       O  0.61106770  0.13812045  0.38666018    -0.74100
O1444       O  0.65559728  0.18837223  0.51688574    -0.74900
O1445       O  0.63076532  0.17972844  0.34879164    -0.74300
O1446       O  0.62639090  0.14372623  0.48748304    -0.74700
O1447       O  0.65574829  0.11593082  0.42067581    -0.74700
O1448       O  0.70493368  0.14164997  0.40890375    -0.74400
C1449       C  0.74845886  0.22342802  0.48679506     0.77300
C1450       C  0.67708343  0.25794464  0.42548675     0.77800
C1451       C  0.72524581  0.21405745  0.32628136     0.76800
C1452       C  0.60946693  0.15347122  0.35657164     0.77200
C1453       C  0.63331848  0.16188241  0.51822506     0.78300
C1454       C  0.68038496  0.11697372  0.41265773     0.77400
C1455       C  0.60365824  0.13593696  0.62548306     0.80400
N1456       N  0.62142446  0.14341458  0.59076200    -0.77900
C1457       C  0.61403120  0.15279845  0.55529375     0.82900
N1458       N  0.58879532  0.15453519  0.55435793    -0.77800
C1459       C  0.57086640  0.14701762  0.58866424     0.83000
N1460       N  0.57820567  0.13758666  0.62435765    -0.79500
Zn1461     Zn  0.61886207  0.07520786  0.80174539     1.49700
Zn1462     Zn  0.63911904  0.13587913  0.75039380     1.49400
Zn1463     Zn  0.67939639  0.10420594  0.75054304     1.49100
Zn1464     Zn  0.61880457  0.07462930  0.70041864     1.49500
O1465       O  0.63893719  0.09766608  0.75079188    -1.83900
O1466       O  0.61208753  0.10121926  0.84196443    -0.74500
O1467       O  0.68253858  0.17032644  0.74945456    -0.74400
O1468       O  0.68672621  0.08477332  0.80005308    -0.73900
O1469       O  0.61970336  0.14067628  0.80415499    -0.74600
O1470       O  0.64298310  0.06032362  0.83300943    -0.74200
O1471       O  0.70934307  0.14752725  0.75093258    -0.74700
O1472       O  0.64310342  0.05936201  0.67006432    -0.74100
O1473       O  0.61900673  0.13974791  0.69697126    -0.74900
O1474       O  0.68767670  0.08614357  0.70013005    -0.74300
O1475       O  0.61174255  0.10023225  0.65947289    -0.74700
O1476       O  0.57895162  0.03931882  0.71637834    -0.74700
O1477       O  0.57889138  0.03973375  0.78663228    -0.74400
C1478       C  0.61212862  0.12570068  0.83839261     0.77300
C1479       C  0.70757574  0.17108156  0.74998319     0.77800
C1480       C  0.67017163  0.06713428  0.82888148     0.76800
C1481       C  0.67071796  0.06745776  0.67267720     0.77200
C1482       C  0.61148136  0.12459936  0.66287321     0.78300
C1483       C  0.56641050  0.02838755  0.75157682     0.77400
C1484       C  0.60419596  0.13702274  0.87571551     0.80400
N1485       N  0.57856245  0.13828935  0.87683566    -0.77900
C1486       C  0.57018748  0.14624681  0.91307384     0.82900
N1487       N  0.58758343  0.15301702  0.94783635    -0.77800
C1488       C  0.61322062  0.15202718  0.94672983     0.83000
N1489       N  0.62144967  0.14387226  0.91080099    -0.79500
C1490       C  0.84336177  0.17148017  0.92072158     0.80400
N1491       N  0.86963476  0.17151958  0.92133869    -0.77900
C1492       C  0.86971050  0.14534116  0.92302724     0.82900
N1493       N  0.84332988  0.11906510  0.92465907    -0.77800
C1494       C  0.81706965  0.11898144  0.92379724     0.83000
N1495       N  0.81710760  0.14512221  0.92145214    -0.79500
Zn1496     Zn  0.98780113  0.13982217  0.87032893     1.49700
Zn1497     Zn  0.99686640  0.15379426  0.96906833     1.49400
Zn1498     Zn  0.96558040  0.18135614  0.91261273     1.49100
Zn1499     Zn  0.93091439  0.11083101  0.93004035     1.49500
O1500       O  0.97029072  0.14641798  0.92084077    -1.83900
O1501       O  0.52695310  0.14228254  0.88192045    -0.74500
O1502       O  0.51039861  0.19458914  0.99495057    -0.74400
O1503       O  0.98174198  0.20064121  0.85636665    -0.73900
O1504       O  0.53345962  0.15163022  0.95063619    -0.74600
O1505       O  0.99446760  0.16990176  0.82602209    -0.74200
O1506       O  0.98695576  0.21254429  0.95678225    -0.74700
O1507       O  0.89808307  0.12112328  0.92820761    -0.74100
O1508       O  0.97505870  0.12298259  0.01493358    -0.74900
O1509       O  0.92230407  0.17003496  0.91585828    -0.74300
O1510       O  0.92991668  0.09381161  0.98717144    -0.74700
O1511       O  0.92105976  0.07844886  0.88628320    -0.74700
O1512       O  0.96136379  0.09941886  0.84538580    -0.74400
C1513       C  0.54212886  0.14684896  0.91531342     0.77300
C1514       C  0.50399780  0.21483444  0.98701420     0.77800
C1515       C  0.99160260  0.19286834  0.82503245     0.76800
C1516       C  0.89816261  0.14548484  0.92239916     0.77200
C1517       C  0.94851848  0.10070273  0.01726162     0.78300
C1518       C  0.93571606  0.07755514  0.85460143     0.77400
Zn1519     Zn  0.51140396  0.27429667  0.08900219     1.49700
Zn1520     Zn  0.56821325  0.30419363  0.02846766     1.49400
Zn1521     Zn  0.54505295  0.34562179  0.07148201     1.49100
Zn1522     Zn  0.57705019  0.31904047  0.12628105     1.49500
O1523       O  0.55024670  0.31077868  0.07870946    -1.83900
O1524       O  0.50184535  0.24291509  0.04411672    -0.74500
O1525       O  0.57522169  0.33468318  0.98434437    -0.74400
O1526       O  0.50165005  0.33336974  0.07954753    -0.73900
O1527       O  0.54235970  0.26348336  0.00342082    -0.74600
O1528       O  0.97806813  0.28427224  0.09155261    -0.74200
O1529       O  0.55926292  0.36341092  0.01337330    -0.74700
O1530       O  0.59081594  0.35939000  0.15195094    -0.74100
O1531       O  0.60751386  0.30689811  0.04143610    -0.74900
O1532       O  0.56840578  0.37852474  0.11434457    -0.74300
O1533       O  0.61381540  0.31751650  0.10980983    -0.74700
O1534       O  0.55591386  0.28855942  0.17126717    -0.74700
O1535       O  0.51181957  0.25520603  0.14414630    -0.74400
C1536       C  0.51674397  0.24174155  0.01299041     0.77300
C1537       C  0.57081675  0.35669827  0.98284777     0.77800
C1538       C  0.97794254  0.30870545  0.08756737     0.76800
C1539       C  0.58550868  0.38038304  0.14440013     0.77200
C1540       C  0.62257478  0.31225313  0.07513233     0.78300
C1541       C  0.53092304  0.26433162  0.17376970     0.77400
Zn1542     Zn  0.74224664  0.03706609  0.97214591     1.49700
Zn1543     Zn  0.71443735  0.48017230  0.91182266     1.49400
Zn1544     Zn  0.67712769  0.01386616  0.93011132     1.49100
Zn1545     Zn  0.73546865  0.04533173  0.87449715     1.49500
O1546       O  0.71713224  0.01890639  0.92240314    -1.83900
O1547       O  0.75657227  0.01087644  0.99732818    -0.74500
O1548       O  0.67096994  0.44711603  0.90955943    -0.74400
O1549       O  0.67405995  0.02852000  0.98807178    -0.73900
O1550       O  0.73655445  0.47071383  0.95615598    -0.74600
O1551       O  0.71919967  0.04495642  0.01628324    -0.74200
O1552       O  0.64553456  0.47050155  0.92261163    -0.74700
O1553       O  0.70923092  0.05905757  0.84908340    -0.74100
O1554       O  0.73334941  0.48027647  0.85628292    -0.74900
O1555       O  0.66760755  0.03695025  0.88708538    -0.74300
O1556       O  0.74411308  0.02423760  0.82930624    -0.74700
O1557       O  0.77407085  0.08193524  0.88980303    -0.74700
O1558       O  0.77946612  0.07600245  0.95792196    -0.74400
C1559       C  0.75270767  0.48536951  0.98744078     0.77300
C1560       C  0.64639228  0.44691920  0.91408462     0.77800
C1561       C  0.69269220  0.04051660  0.01814204     0.76800
C1562       C  0.68293361  0.05382154  0.85677551     0.77200
C1563       C  0.74314071  0.49930812  0.82659733     0.78300
C1564       C  0.78876270  0.09081974  0.92390449     0.77400
Zn1565     Zn  0.78369248  0.41231067  0.12609816     1.49700
Zn1566     Zn  0.84262189  0.44392523  0.07142467     1.49400
Zn1567     Zn  0.77825238  0.42120808  0.02781133     1.49100
Zn1568     Zn  0.80519729  0.47766683  0.08872862     1.49500
O1569       O  0.80258273  0.43892815  0.07837400    -1.83900
O1570       O  0.80982653  0.39814892  0.15174004    -0.74500
O1571       O  0.84628514  0.42933907  0.01375633    -0.74400
O1572       O  0.74142802  0.38184282  0.04082931    -0.73900
O1573       O  0.85163164  0.42045434  0.11412104    -0.74600
O1574       O  0.74532141  0.37574187  0.10938716    -0.74200
O1575       O  0.80190760  0.41408384  0.98382111    -0.74700
O1576       O  0.78342828  0.48725437  0.04405929    -0.74100
O1577       O  0.87420765  0.48726099  0.07965724    -0.74900
O1578       O  0.76355484  0.44715235  0.00280449    -0.74300
O1579       O  0.84871461  0.01075707  0.09143456    -0.74700
O1580       O  0.78566331  0.47744522  0.14380715    -0.74700
O1581       O  0.77438988  0.43341835  0.17113208    -0.74400
C1582       C  0.83612614  0.40328277  0.14403946     0.77300
C1583       C  0.82822684  0.41799018  0.98294915     0.77800
C1584       C  0.73150279  0.36685697  0.07459502     0.76800
C1585       C  0.76734350  0.47262295  0.01272135     0.77200
C1586       C  0.87332171  0.01090056  0.08768902     0.78300
C1587       C  0.77541748  0.45842796  0.17350781     0.77400
C1588       C  0.67695653  0.28614455  0.07395836     0.80400
N1589       N  0.70325189  0.31245207  0.07379150    -0.77900
C1590       C  0.70329307  0.33864703  0.07356632     0.82900
N1591       N  0.67704897  0.33857216  0.07384942    -0.77800
C1592       C  0.65073834  0.31228054  0.07404553     0.83000
N1593       N  0.65067363  0.28604041  0.07420365    -0.79500
Zn1594     Zn  0.87817014  0.26702700  0.92944947     1.49700
Zn1595     Zn  0.83620160  0.29079517  0.96810067     1.49400
Zn1596     Zn  0.85018644  0.29520563  0.86904121     1.49100
Zn1597     Zn  0.80770053  0.23141003  0.91242165     1.49500
O1598       O  0.84305067  0.27119427  0.91994262    -1.83900
O1599       O  0.89533693  0.28281649  0.98651979    -0.74500
O1600       O  0.83937658  0.32982360  0.94929949    -0.74400
O1601       O  0.89036507  0.30772508  0.84323384    -0.73900
O1602       O  0.86693738  0.29959853  0.01398839    -0.74600
O1603       O  0.91057836  0.28889050  0.88612964    -0.74200
O1604       O  0.84924745  0.33285214  0.88068337    -0.74700
O1605       O  0.78768331  0.22846098  0.85696110    -0.74100
O1606       O  0.79510397  0.26396456  0.99421464    -0.74900
O1607       O  0.81882652  0.27169992  0.82578154    -0.74300
O1608       O  0.77710305  0.22170258  0.95766301    -0.74700
O1609       O  0.81871936  0.19925467  0.91413815    -0.74700
O1610       O  0.86763729  0.22404855  0.92666763    -0.74400
C1611       C  0.88880529  0.29487429  0.01648894     0.77300
C1612       C  0.84468278  0.34349229  0.91410669     0.77800
C1613       C  0.91179353  0.30369159  0.85356576     0.76800
C1614       C  0.79533857  0.24598360  0.82548963     0.77200
C1615       C  0.77485049  0.23696739  0.98723718     0.78300
C1616       C  0.84325760  0.19973411  0.92029229     0.77400
Zn1617     Zn  0.64340612  0.14739557  0.07251731     1.49700
Zn1618     Zn  0.67104913  0.20641205  0.12689710     1.49400
Zn1619     Zn  0.71473936  0.18453964  0.08907667     1.49100
Zn1620     Zn  0.68537234  0.21177529  0.02880353     1.49500
O1621       O  0.67870094  0.18742307  0.07922886    -1.83900
O1622       O  0.61105942  0.13843192  0.11561236    -0.74500
O1623       O  0.70136188  0.21539374  0.17179051    -0.74400
O1624       O  0.70395875  0.14095313  0.09104475    -0.73900
O1625       O  0.63080360  0.18023133  0.15310339    -0.74600
O1626       O  0.65467320  0.11571215  0.08030266    -0.74200
O1627       O  0.73369364  0.20343720  0.14465067    -0.74700
O1628       O  0.72644949  0.22718879  0.00422380    -0.74100
O1629       O  0.67272301  0.24466150  0.11025957    -0.74900
O1630       O  0.74636169  0.20647851  0.04418704    -0.74300
O1631       O  0.68193454  0.24802696  0.04145751    -0.74700
O1632       O  0.65500575  0.18762090  0.98452424    -0.74700
O1633       O  0.62526962  0.14348549  0.01488178    -0.74400
C1634       C  0.60956847  0.15387061  0.14567788     0.77300
C1635       C  0.72501467  0.21376608  0.17435093     0.77800
C1636       C  0.67920434  0.11642860  0.08757648     0.76800
C1637       C  0.74792339  0.22296579  0.01343963     0.77200
C1638       C  0.67707575  0.25808572  0.07523371     0.78300
C1639       C  0.63242532  0.16130121  0.98375295     0.77400
C1640       C  0.91743511  0.32185251  0.37430737     0.80400
N1641       N  0.90053798  0.31500093  0.40987736    -0.77900
C1642       C  0.90810058  0.30504932  0.44465912     0.82900
N1643       N  0.93293433  0.30254384  0.44401238    -0.77800
C1644       C  0.95019353  0.30976061  0.40906134     0.83000
N1645       N  0.94248132  0.31945379  0.37400447    -0.79500
Zn1646     Zn  0.90067470  0.38212535  0.19849855     1.49700
Zn1647     Zn  0.90001944  0.38187280  0.30024535     1.49400
Zn1648     Zn  0.84005302  0.35207598  0.24870974     1.49100
Zn1649     Zn  0.88190672  0.32181354  0.24956707     1.49500
O1650       O  0.88071373  0.35932404  0.24920366    -1.83900
O1651       O  0.94042801  0.41751115  0.21467285    -0.74500
O1652       O  0.87524766  0.39654699  0.33036361    -0.74400
O1653       O  0.83202789  0.37089531  0.19903440    -0.73900
O1654       O  0.93982760  0.41736377  0.28497748    -0.74600
O1655       O  0.87629893  0.39715466  0.16796540    -0.74200
O1656       O  0.83143394  0.37086839  0.29807885    -0.74700
O1657       O  0.83909162  0.28647434  0.25023489    -0.74100
O1658       O  0.90728790  0.35650259  0.34130665    -0.74900
O1659       O  0.81135920  0.30834508  0.24879389    -0.74300
O1660       O  0.90252159  0.31842534  0.30269162    -0.74700
O1661       O  0.90184571  0.31787303  0.19605896    -0.74700
O1662       O  0.90798627  0.35653783  0.15761230    -0.74400
C1663       C  0.95263944  0.42853048  0.25000666     0.77300
C1664       C  0.84789699  0.38918501  0.32632915     0.77800
C1665       C  0.84883465  0.38957443  0.17136401     0.76800
C1666       C  0.81379485  0.28512733  0.24965606     0.77200
C1667       C  0.90897632  0.33294480  0.33727867     0.78300
C1668       C  0.90886824  0.33253214  0.16158546     0.77400
C1669       C  0.91706567  0.32104454  0.12465866     0.80400
N1670       N  0.89992773  0.31374683  0.08934451    -0.77900
C1671       C  0.90723843  0.30332305  0.05473333     0.82900
N1672       N  0.93207326  0.30079709  0.05529640    -0.77800
C1673       C  0.94957526  0.30847755  0.09000429     0.83000
N1674       N  0.94210406  0.31865000  0.12485194    -0.79500
C1675       C  0.75494693  0.99458932  0.71393262     0.80400
N1676       N  0.77953524  0.99165840  0.71412404    -0.77900
C1677       C  0.79106883  0.98896361  0.75111867     0.82900
N1678       N  0.77822069  0.98977884  0.78806068    -0.77800
C1679       C  0.75376474  0.99296623  0.78781026     0.83000
N1680       N  0.74243427  0.99569742  0.75081955    -0.79500
C1681       C  0.76531083  0.96546755  0.21238910     0.80400
N1682       N  0.74342325  0.97263425  0.21224945    -0.77900
C1683       C  0.73253602  0.97648455  0.24928673     0.82900
N1684       N  0.74344044  0.97280207  0.28633874    -0.77800
C1685       C  0.76532127  0.96563704  0.28625693     0.83000
N1686       N  0.77554931  0.96124800  0.24934020    -0.79500
C1687       C  0.74218800  0.72383145  0.28716704     0.80400
N1688       N  0.72745499  0.71349647  0.25030687    -0.77900
C1689       C  0.74207043  0.72359103  0.21328188     0.82900
N1690       N  0.77127527  0.74541874  0.21302838    -0.77800
C1691       C  0.78606928  0.75640016  0.24994279     0.83000
N1692       N  0.77141816  0.74565021  0.28706697    -0.79500
C1693       C  0.77790815  0.73560405  0.78668107     0.80400
N1694       N  0.79165655  0.74772365  0.74966432    -0.77900
C1695       C  0.77800874  0.73550594  0.71265273     0.82900
N1696       N  0.75004852  0.71109870  0.71268563    -0.77800
C1697       C  0.73560044  0.69959614  0.74973575     0.83000
N1698       N  0.74997388  0.71124001  0.78669600    -0.79500
C1699       C  0.50782099  0.75288703  0.74854928     0.80400
N1700       N  0.50551525  0.73857566  0.71162011    -0.77900
C1701       C  0.50005479  0.71003342  0.71195155     0.82900
N1702       N  0.49640110  0.69576608  0.74903409    -0.77800
C1703       C  0.49851741  0.70982996  0.78588066     0.83000
N1704       N  0.50355392  0.73818884  0.78558375    -0.79500
C1705       C  0.51344040  0.70383396  0.25002283     0.80400
N1706       N  0.51710779  0.71833679  0.21285575    -0.77900
C1707       C  0.52401625  0.74734768  0.21276208     0.82900
N1708       N  0.52816233  0.76199989  0.24959738    -0.77800
C1709       C  0.52391056  0.74756518  0.28661128     0.83000
N1710       N  0.51700395  0.71857860  0.28693251    -0.79500
C1711       C  0.53465812  0.97572189  0.25196890     0.80400
N1712       N  0.50680594  0.95133175  0.25131417    -0.77900
C1713       C  0.98248933  0.95473069  0.25049518     0.82900
N1714       N  0.98599883  0.98249900  0.25023232    -0.77800
C1715       C  0.51386863  0.50689141  0.25082449     0.83000
N1716       N  0.53821009  0.50351775  0.25169856    -0.79500
C1717       C  0.98442078  0.97926465  0.75088834     0.80400
N1718       N  0.51199536  0.50419296  0.75133288    -0.77900
C1719       C  0.53686322  0.50170858  0.75168345     0.82900
N1720       N  0.53425234  0.97432916  0.75152030    -0.77800
C1721       C  0.50676809  0.94944148  0.75110001     0.83000
N1722       N  0.98188255  0.95188087  0.75074230    -0.79500
C1723       C  0.94636041  0.57243726  0.12542280     0.80400
N1724       N  0.95623263  0.58974141  0.09021942    -0.77900
C1725       C  0.93860582  0.58217065  0.05543190     0.82900
N1726       N  0.91136866  0.55696048  0.05572508    -0.77800
C1727       C  0.90156153  0.53929809  0.09026248     0.83000
N1728       N  0.91904574  0.54700039  0.12530294    -0.79500
Zn1729     Zn  0.55447909  0.64938345  0.25120503     1.49700
Zn1730     Zn  0.48215530  0.60791690  0.25034260     1.49400
Zn1731     Zn  0.52359582  0.58892935  0.19993932     1.49100
Zn1732     Zn  0.52360829  0.58891782  0.30136613     1.49500
O1733       O  0.52074324  0.60874850  0.25069248    -1.83900
O1734       O  0.53992207  0.67841199  0.25091366    -0.74500
O1735       O  0.95820163  0.58781751  0.19684743    -0.74400
O1736       O  0.56313844  0.61360207  0.16964578    -0.73900
O1737       O  0.49007746  0.65081294  0.25020292    -0.74600
O1738       O  0.58161656  0.65754242  0.20164136    -0.74200
O1739       O  0.49090439  0.58168694  0.15877593    -0.74700
O1740       O  0.51920075  0.54927087  0.28578859    -0.74100
O1741       O  0.95787020  0.58747621  0.30346986    -0.74900
O1742       O  0.51896831  0.54909915  0.21552883    -0.74300
O1743       O  0.49047177  0.58128862  0.34163090    -0.74700
O1744       O  0.56291977  0.61328541  0.33246879    -0.74700
O1745       O  0.58141998  0.65735304  0.30101744    -0.74400
C1746       C  0.51425703  0.67608112  0.25038055     0.77300
C1747       C  0.96596451  0.58078521  0.16248937     0.77800
C1748       C  0.58324529  0.64098823  0.17341885     0.76800
C1749       C  0.51760623  0.53668149  0.25068769     0.77200
C1750       C  0.96548670  0.58023943  0.33771645     0.78300
C1751       C  0.58303740  0.64068287  0.32900755     0.77400
C1752       C  0.94583781  0.57167769  0.37468200     0.80400
N1753       N  0.95590691  0.58866799  0.41006145    -0.77900
C1754       C  0.93874121  0.58056057  0.44528061     0.82900
N1755       N  0.91157821  0.55531011  0.44534357    -0.77800
C1756       C  0.90141836  0.53810314  0.41032019     0.83000
N1757       N  0.91856586  0.54621646  0.37484116    -0.79500
C1758       C  0.57467902  0.88474697  0.62430723     0.80400
N1759       N  0.60165103  0.91054477  0.62337568    -0.77900
C1760       C  0.61801833  0.91924357  0.58710134     0.82900
N1761       N  0.60738475  0.90197247  0.55218604    -0.77800
C1762       C  0.58070509  0.87618665  0.55315856     0.83000
N1763       N  0.56427990  0.86765572  0.58907359    -0.79500
Zn1764     Zn  0.53939447  0.84884144  0.74926077     1.49700
Zn1765     Zn  0.99779819  0.86759577  0.80010803     1.49400
Zn1766     Zn  0.99796135  0.86817165  0.69974380     1.49100
Zn1767     Zn  0.96697353  0.80724929  0.74928901     1.49500
O1768       O  0.00081844  0.84795120  0.74960144    -1.83900
O1769       O  0.56340967  0.86896732  0.80286362    -0.74500
O1770       O  0.00239866  0.90738331  0.78558660    -0.74400
O1771       O  0.53037772  0.87518262  0.65838620    -0.73900
O1772       O  0.53031044  0.87454770  0.84094284    -0.74600
O1773       O  0.56342794  0.86926876  0.69584839    -0.74200
O1774       O  0.00278448  0.90790101  0.71542801    -0.74700
O1775       O  0.93998269  0.79942268  0.69963186    -0.74100
O1776       O  0.95799622  0.84330461  0.82938843    -0.74900
O1777       O  0.95804353  0.84431520  0.67064698    -0.74300
O1778       O  0.93993242  0.79873052  0.79932657    -0.74700
O1779       O  0.98133805  0.77823053  0.74848990    -0.74700
O1780       O  0.53119695  0.80584687  0.74859519    -0.74400
C1781       C  0.55540100  0.87578001  0.83722230     0.77300
C1782       C  0.00392520  0.92007827  0.75068860     0.77800
C1783       C  0.55541377  0.87625268  0.66172853     0.76800
C1784       C  0.93817042  0.81680954  0.67316430     0.77200
C1785       C  0.93812983  0.81582835  0.82641318     0.78300
C1786       C  0.00699079  0.78058414  0.74830429     0.77400
C1787       C  0.57473208  0.88428420  0.87450353     0.80400
N1788       N  0.56434860  0.86720513  0.90977632    -0.77900
C1789       C  0.58086558  0.87566078  0.94557263     0.82900
N1790       N  0.60768158  0.90129295  0.94629722    -0.77800
C1791       C  0.61818374  0.91854517  0.91140124     0.83000
N1792       N  0.60169069  0.91012596  0.87534565    -0.79500
C1793       C  0.85148360  0.91504193  0.62422510     0.80400
N1794       N  0.85189690  0.88895199  0.62310577    -0.77900
C1795       C  0.84442309  0.87245354  0.58698399     0.82900
N1796       N  0.83684648  0.88228545  0.55216037    -0.77800
C1797       C  0.83619990  0.90807553  0.55323962     0.83000
N1798       N  0.84334078  0.92430332  0.58922946    -0.79500
Zn1799     Zn  0.93143563  0.52240020  0.74888828     1.49700
Zn1800     Zn  0.88931701  0.95029035  0.74927053     1.49400
Zn1801     Zn  0.87050065  0.49186794  0.80027146     1.49100
Zn1802     Zn  0.87020117  0.49230158  0.70010979     1.49500
O1803       O  0.89036146  0.48892995  0.74968563    -1.83900
O1804       O  0.96068307  0.50793613  0.75066803    -0.74500
O1805       O  0.86970221  0.92611272  0.80318402    -0.74400
O1806       O  0.89576361  0.53056164  0.83192085    -0.73900
O1807       O  0.93186402  0.95834315  0.74938588    -0.74600
O1808       O  0.93905353  0.55010767  0.79767976    -0.74200
O1809       O  0.86151836  0.95818180  0.83925419    -0.74700
O1810       O  0.83150614  0.48964943  0.71599748    -0.74100
O1811       O  0.86967003  0.92678452  0.69505973    -0.74900
O1812       O  0.83155886  0.48943358  0.78600805    -0.74300
O1813       O  0.86096986  0.95883366  0.65993796    -0.74700
O1814       O  0.89514975  0.53165719  0.66967727    -0.74700
O1815       O  0.94015906  0.54841136  0.69771772    -0.74400
C1816       C  0.95756403  0.48195681  0.75030454     0.77300
C1817       C  0.86141952  0.93361807  0.83670523     0.77800
C1818       C  0.92283057  0.55119977  0.82698938     0.76800
C1819       C  0.81931672  0.48895534  0.75110077     0.77200
C1820       C  0.86101984  0.93430152  0.66197406     0.78300
C1821       C  0.92299549  0.55067702  0.67129306     0.77400
C1822       C  0.85217663  0.91449511  0.87453143     0.80400
N1823       N  0.84438372  0.92406008  0.90961149    -0.77900
C1824       C  0.83750904  0.90815234  0.94580250     0.82900
N1825       N  0.83797776  0.88227785  0.94700804    -0.77800
C1826       C  0.84524397  0.87213724  0.91212668     0.83000
N1827       N  0.85251206  0.88836878  0.87576146    -0.79500
C1828       C  0.66753412  0.54373341  0.12590317     0.80400
N1829       N  0.67456996  0.53361215  0.09071411    -0.77900
C1830       C  0.68392166  0.55068178  0.05546264     0.82900
N1831       N  0.68602901  0.57782185  0.05517783    -0.77800
C1832       C  0.67889861  0.58806893  0.09000224     0.83000
N1833       N  0.66953726  0.57098584  0.12550649    -0.79500
Zn1834     Zn  0.63670834  0.93563845  0.24963763     1.49700
Zn1835     Zn  0.60748750  0.96637142  0.30154292     1.49400
Zn1836     Zn  0.66799297  0.00782260  0.25017830     1.49100
Zn1837     Zn  0.60672547  0.96612239  0.20000732     1.49500
O1838       O  0.62989390  0.96924132  0.25034226    -1.83900
O1839       O  0.61788713  0.90854968  0.29918615    -0.74500
O1840       O  0.63336247  0.99935886  0.34213346    -0.74400
O1841       O  0.70305979  0.99994794  0.24974587    -0.73900
O1842       O  0.59269165  0.92691689  0.33192201    -0.74600
O1843       O  0.68039712  0.95016588  0.24920083    -0.74200
O1844       O  0.67214333  0.53200889  0.30354287    -0.74700
O1845       O  0.63212293  0.99933960  0.15949997    -0.74100
O1846       O  0.57205264  0.97079636  0.28672991    -0.74900
O1847       O  0.67165944  0.53185596  0.19699609    -0.74300
O1848       O  0.57151555  0.97039838  0.21646628    -0.74700
O1849       O  0.59157687  0.92670376  0.16877042    -0.74700
O1850       O  0.61746494  0.90864468  0.19999695    -0.74400
C1851       C  0.59983770  0.90684992  0.32771588     0.77300
C1852       C  0.65743528  0.52437665  0.33803398     0.77800
C1853       C  0.70396041  0.97577787  0.24935378     0.76800
C1854       C  0.65639533  0.52424750  0.16304058     0.77200
C1855       C  0.56076047  0.97207487  0.25175487     0.78300
C1856       C  0.59901645  0.90679846  0.17209387     0.77400
C1857       C  0.66886774  0.54414324  0.37492315     0.80400
N1858       N  0.67081152  0.57137488  0.37499959    -0.77900
C1859       C  0.68057072  0.58885593  0.41009526     0.82900
N1860       N  0.68832465  0.57910580  0.44471664    -0.77800
C1861       C  0.68618678  0.55192850  0.44500181     0.83000
N1862       N  0.67614971  0.53433848  0.41018904    -0.79500
C1863       C  0.84479718  0.67266919  0.57675078     0.80400
N1864       N  0.81847601  0.64634320  0.57774292    -0.77900
C1865       C  0.81823292  0.62003795  0.57848617     0.82900
N1866       N  0.84450266  0.62010466  0.57868440    -0.77800
C1867       C  0.87087867  0.64630605  0.57730989     0.83000
N1868       N  0.87104321  0.67260346  0.57613895    -0.79500
Zn1869     Zn  0.95208724  0.65236462  0.52849433     1.49700
Zn1870     Zn  0.50991741  0.68215173  0.58726834     1.49400
Zn1871     Zn  0.94464656  0.63829046  0.62661471     1.49100
Zn1872     Zn  0.97568794  0.61110334  0.57038622     1.49500
O1873       O  0.97070381  0.64599407  0.57809331    -1.83900
O1874       O  0.97804936  0.69278762  0.50248085    -0.74500
O1875       O  0.51088319  0.70162561  0.64267779    -0.74400
O1876       O  0.90825717  0.64106898  0.61174558    -0.73900
O1877       O  0.51883041  0.71329278  0.54244400    -0.74600
O1878       O  0.91326207  0.65054021  0.54302794    -0.74200
O1879       O  0.96729824  0.66854186  0.67150626    -0.74700
O1880       O  0.95281769  0.57883658  0.61367118    -0.74100
O1881       O  0.54294463  0.67178216  0.58898558    -0.74900
O1882       O  0.92997987  0.59751976  0.65163459    -0.74300
O1883       O  0.51884076  0.62259181  0.57798029    -0.74700
O1884       O  0.96095777  0.59307646  0.51259717    -0.74700
O1885       O  0.94404444  0.62126878  0.48464352    -0.74400
C1886       C  0.50378840  0.71455617  0.51159898     0.77300
C1887       C  0.99248833  0.69263504  0.67322354     0.77800
C1888       C  0.89897321  0.64606141  0.57737870     0.76800
C1889       C  0.93561039  0.57680006  0.64368686     0.77200
C1890       C  0.54272738  0.64715071  0.58554468     0.78300
C1891       C  0.94874060  0.59944066  0.48266803     0.77400
Zn1892     Zn  0.54538916  0.84592762  0.42756540     1.49700
Zn1893     Zn  0.51133776  0.77478512  0.41022821     1.49400
Zn1894     Zn  0.57721869  0.81896351  0.37305487     1.49100
Zn1895     Zn  0.56795208  0.80434314  0.47086203     1.49500
O1896       O  0.55030339  0.81096639  0.42049893    -1.83900
O1897       O  0.50225271  0.83429881  0.41917861    -0.74500
O1898       O  0.51165750  0.75583865  0.35495481    -0.74400
O1899       O  0.59150628  0.85936144  0.34745452    -0.73900
O1900       O  0.97827064  0.78513205  0.40774665    -0.74600
O1901       O  0.56912451  0.87859455  0.38510305    -0.74200
O1902       O  0.55605189  0.78867864  0.32797901    -0.74700
O1903       O  0.60713525  0.80669476  0.45813954    -0.74100
O1904       O  0.50166944  0.74317230  0.45480730    -0.74900
O1905       O  0.61360621  0.81696453  0.38967989    -0.74300
O1906       O  0.54191238  0.76372900  0.49578233    -0.74700
O1907       O  0.57495244  0.83494352  0.51486794    -0.74700
O1908       O  0.55943635  0.86383246  0.48538542    -0.74400
C1909       C  0.97841848  0.80972829  0.41136252     0.77300
C1910       C  0.53085462  0.76471031  0.32541547     0.77800
C1911       C  0.58630155  0.88041207  0.35514774     0.76800
C1912       C  0.62220625  0.81175196  0.42445513     0.77200
C1913       C  0.51639592  0.74187642  0.48604956     0.78300
C1914       C  0.57074876  0.85709700  0.51606236     0.77400
Zn1915     Zn  0.75782413  0.52439344  0.58634388     1.49700
Zn1916     Zn  0.69379981  0.50237841  0.62965555     1.49400
Zn1917     Zn  0.72218943  0.55909400  0.57041995     1.49100
Zn1918     Zn  0.69879801  0.99322453  0.53065426     1.49500
O1919       O  0.71805692  0.51971591  0.57896138    -1.83900
O1920       O  0.76118856  0.50919727  0.64278026    -0.74500
O1921       O  0.67894484  0.52826115  0.65426457    -0.74400
O1922       O  0.76544344  0.59185136  0.57350598    -0.73900
O1923       O  0.71803521  0.99713354  0.67415640    -0.74600
O1924       O  0.79004619  0.56747362  0.58350684    -0.74200
O1925       O  0.69955217  0.56878310  0.61391317    -0.74700
O1926       O  0.68991044  0.51532028  0.48536139    -0.74100
O1927       O  0.65740061  0.96264555  0.61838105    -0.74900
O1928       O  0.70660004  0.56050910  0.51323669    -0.74300
O1929       O  0.65992295  0.95653730  0.54942872    -0.74700
O1930       O  0.72596019  0.97963101  0.50409112    -0.74700
O1931       O  0.76757068  0.50282666  0.54222084    -0.74400
C1932       C  0.74401622  0.00020151  0.67471581     0.77300
C1933       C  0.68335797  0.55402486  0.64505724     0.77800
C1934       C  0.78974872  0.59167052  0.57859033     0.76800
C1935       C  0.69461176  0.54193618  0.48313563     0.77200
C1936       C  0.64666005  0.94755816  0.58488711     0.78300
C1937       C  0.75264979  0.98583576  0.51192271     0.77400
Zn1938     Zn  0.77730136  0.92123780  0.47082324     1.49700
Zn1939     Zn  0.78284271  0.91200523  0.37235128     1.49400
Zn1940     Zn  0.80481929  0.97761417  0.41018066     1.49100
Zn1941     Zn  0.84141512  0.94289771  0.42716196     1.49500
O1942       O  0.80171240  0.93860904  0.42020314    -1.83900
O1943       O  0.74085018  0.88171336  0.45792526    -0.74500
O1944       O  0.77364595  0.93326537  0.32766945    -0.74400
O1945       O  0.78313395  0.98766129  0.45499263    -0.73900
O1946       O  0.74458078  0.87546387  0.38929016    -0.74600
O1947       O  0.76225210  0.94711218  0.49538489    -0.74200
O1948       O  0.78580134  0.97765984  0.35474179    -0.74700
O1949       O  0.87339484  0.98606387  0.42000998    -0.74100
O1950       O  0.80880609  0.89775204  0.34602084    -0.74900
O1951       O  0.84857476  0.51022462  0.40820581    -0.74300
O1952       O  0.85035838  0.91957610  0.38404133    -0.74700
O1953       O  0.84470663  0.92806342  0.48463873    -0.74700
O1954       O  0.80091468  0.91457283  0.51536481    -0.74400
C1955       C  0.73093306  0.86662148  0.42424647     0.77300
C1956       C  0.77522536  0.95852092  0.32516613     0.77800
C1957       C  0.76662047  0.97283745  0.48591723     0.76800
C1958       C  0.87294479  0.50995370  0.41235843     0.77200
C1959       C  0.83501698  0.90271112  0.35379616     0.78300
C1960       C  0.82692935  0.91770159  0.51593169     0.77400
C1961       C  0.67677793  0.78589338  0.42642663     0.80400
N1962       N  0.65041206  0.78563248  0.42613319    -0.77900
C1963       C  0.65035533  0.81181074  0.42571652     0.82900
N1964       N  0.67658215  0.83814834  0.42531818    -0.77800
C1965       C  0.70287499  0.83836247  0.42561947     0.83000
N1966       N  0.70299722  0.81226105  0.42601922    -0.79500
Zn1967     Zn  0.83660168  0.79155787  0.53126340     1.49700
Zn1968     Zn  0.85022369  0.79600341  0.63029556     1.49400
Zn1969     Zn  0.80861433  0.73208025  0.58676112     1.49100
Zn1970     Zn  0.87896908  0.76830577  0.56958446     1.49500
O1971       O  0.84360884  0.77209042  0.57933962    -1.83900
O1972       O  0.83920309  0.83032526  0.54995088    -0.74500
O1973       O  0.81871136  0.77204596  0.67347226    -0.74400
O1974       O  0.77789812  0.72231379  0.54201977    -0.73900
O1975       O  0.84877583  0.83343447  0.61861456    -0.74600
O1976       O  0.79560420  0.76451403  0.50545524    -0.74200
O1977       O  0.78839585  0.72848587  0.64244727    -0.74700
O1978       O  0.86898213  0.72535946  0.57095315    -0.74100
O1979       O  0.89051088  0.80892567  0.65610655    -0.74900
O1980       O  0.82010516  0.70032692  0.58382962    -0.74300
O1981       O  0.91084497  0.78994856  0.61344553    -0.74700
O1982       O  0.89646286  0.78485744  0.51297752    -0.74700
O1983       O  0.86742503  0.80072221  0.48528770    -0.74400
C1984       C  0.84419167  0.84395939  0.58513612     0.77300
C1985       C  0.79557111  0.74605092  0.67383987     0.77800
C1986       C  0.77546324  0.73751458  0.51261133     0.76800
C1987       C  0.84466098  0.70093215  0.57711930     0.77200
C1988       C  0.91195609  0.80483019  0.64591216     0.78300
C1989       C  0.88967164  0.79657993  0.48293853     0.77400
Zn1990     Zn  0.71526240  0.68499823  0.41145029     1.49700
Zn1991     Zn  0.68586344  0.71216395  0.47217448     1.49400
Zn1992     Zn  0.67111651  0.70610952  0.37425447     1.49100
Zn1993     Zn  0.64398450  0.64734428  0.42921291     1.49500
O1994       O  0.67905325  0.68749486  0.42194154    -1.83900
O1995       O  0.74680691  0.70683013  0.45612150    -0.74500
O1996       O  0.68233699  0.74829259  0.45927750    -0.74400
O1997       O  0.70130716  0.71517153  0.32891656    -0.73900
O1998       O  0.72703768  0.72771212  0.49622822    -0.74600
O1999       O  0.73424670  0.70415271  0.35602735    -0.74200
O2000       O  0.67252797  0.74422630  0.39066757    -0.74700
O2001       O  0.61106766  0.63812043  0.38666015    -0.74100
O2002       O  0.65559721  0.68837219  0.51688573    -0.74900
O2003       O  0.63076532  0.67972848  0.34879156    -0.74300
O2004       O  0.62639084  0.64372620  0.48748300    -0.74700
O2005       O  0.65574824  0.61593082  0.42067583    -0.74700
O2006       O  0.70493362  0.64164995  0.40890380    -0.74400
C2007       C  0.74845879  0.72342804  0.48679502     0.77300
C2008       C  0.67708350  0.75794460  0.42548673     0.77800
C2009       C  0.72524587  0.71405743  0.32628128     0.76800
C2010       C  0.60946692  0.65347124  0.35657169     0.77200
C2011       C  0.63331839  0.66188237  0.51822504     0.78300
C2012       C  0.68038487  0.61697359  0.41265774     0.77400
C2013       C  0.60365823  0.63593698  0.62548310     0.80400
N2014       N  0.62142442  0.64341453  0.59076200    -0.77900
C2015       C  0.61403114  0.65279839  0.55529373     0.82900
N2016       N  0.58879525  0.65453512  0.55435792    -0.77800
C2017       C  0.57086640  0.64701763  0.58866428     0.83000
N2018       N  0.57820567  0.63758667  0.62435770    -0.79500
Zn2019     Zn  0.61886215  0.57520791  0.80174539     1.49700
Zn2020     Zn  0.63911915  0.63587920  0.75039379     1.49400
Zn2021     Zn  0.67939642  0.60420596  0.75054301     1.49100
Zn2022     Zn  0.61880459  0.57462934  0.70041866     1.49500
O2023       O  0.63893721  0.59766612  0.75079189    -1.83900
O2024       O  0.61208752  0.60121923  0.84196444    -0.74500
O2025       O  0.68253864  0.67032649  0.74945453    -0.74400
O2026       O  0.68672634  0.58477338  0.80005307    -0.73900
O2027       O  0.61970343  0.64067635  0.80415496    -0.74600
O2028       O  0.64298311  0.56032363  0.83300937    -0.74200
O2029       O  0.70934312  0.64752723  0.75093258    -0.74700
O2030       O  0.64310340  0.55936197  0.67006436    -0.74100
O2031       O  0.61900677  0.63974799  0.69697128    -0.74900
O2032       O  0.68767670  0.58614360  0.70013008    -0.74300
O2033       O  0.61174260  0.60023226  0.65947297    -0.74700
O2034       O  0.57895166  0.53931885  0.71637833    -0.74700
O2035       O  0.57889137  0.53973374  0.78663224    -0.74400
C2036       C  0.61212880  0.62570077  0.83839267     0.77300
C2037       C  0.70757579  0.67108157  0.74998319     0.77800
C2038       C  0.67017171  0.56713431  0.82888135     0.76800
C2039       C  0.67071797  0.56745781  0.67267721     0.77200
C2040       C  0.61148143  0.62459945  0.66287321     0.78300
C2041       C  0.56641047  0.52838754  0.75157678     0.77400
C2042       C  0.60419595  0.63702273  0.87571561     0.80400
N2043       N  0.57856244  0.63828926  0.87683569    -0.77900
C2044       C  0.57018750  0.64624683  0.91307377     0.82900
N2045       N  0.58758337  0.65301698  0.94783643    -0.77800
C2046       C  0.61322070  0.65202727  0.94672979     0.83000
N2047       N  0.62144972  0.64387234  0.91080095    -0.79500
C2048       C  0.84336183  0.67148021  0.92072155     0.80400
N2049       N  0.86963482  0.67151968  0.92133869    -0.77900
C2050       C  0.86971058  0.64534127  0.92302719     0.82900
N2051       N  0.84332989  0.61906515  0.92465902    -0.77800
C2052       C  0.81706966  0.61898156  0.92379723     0.83000
N2053       N  0.81710764  0.64512225  0.92145209    -0.79500
Zn2054     Zn  0.98780119  0.63982217  0.87032891     1.49700
Zn2055     Zn  0.99686642  0.65379431  0.96906837     1.49400
Zn2056     Zn  0.96558046  0.68135613  0.91261273     1.49100
Zn2057     Zn  0.93091441  0.61083107  0.93004037     1.49500
O2058       O  0.97029066  0.64641793  0.92084080    -1.83900
O2059       O  0.52695305  0.64228250  0.88192042    -0.74500
O2060       O  0.51039860  0.69458913  0.99495056    -0.74400
O2061       O  0.98174206  0.70064121  0.85636664    -0.73900
O2062       O  0.53345963  0.65163020  0.95063620    -0.74600
O2063       O  0.99446760  0.66990169  0.82602208    -0.74200
O2064       O  0.98695577  0.71254434  0.95678229    -0.74700
O2065       O  0.89808307  0.62112328  0.92820763    -0.74100
O2066       O  0.97505869  0.62298261  0.01493359    -0.74900
O2067       O  0.92230407  0.67003503  0.91585825    -0.74300
O2068       O  0.92991668  0.59381167  0.98717140    -0.74700
O2069       O  0.92105969  0.57844882  0.88628319    -0.74700
O2070       O  0.96136374  0.59941877  0.84538578    -0.74400
C2071       C  0.54212886  0.64684891  0.91531334     0.77300
C2072       C  0.50399775  0.71483444  0.98701423     0.77800
C2073       C  0.99160258  0.69286828  0.82503237     0.76800
C2074       C  0.89816266  0.64548489  0.92239911     0.77200
C2075       C  0.94851857  0.60070285  0.01726166     0.78300
C2076       C  0.93571596  0.57755506  0.85460146     0.77400
Zn2077     Zn  0.51140402  0.77429674  0.08900218     1.49700
Zn2078     Zn  0.56821333  0.80419366  0.02846768     1.49400
Zn2079     Zn  0.54505303  0.84562186  0.07148198     1.49100
Zn2080     Zn  0.57705022  0.81904050  0.12628104     1.49500
O2081       O  0.55024678  0.81077868  0.07870947    -1.83900
O2082       O  0.50184530  0.74291511  0.04411672    -0.74500
O2083       O  0.57522178  0.83468315  0.98434431    -0.74400
O2084       O  0.50165007  0.83336977  0.07954756    -0.73900
O2085       O  0.54235970  0.76348338  0.00342086    -0.74600
O2086       O  0.97806820  0.78427230  0.09155264    -0.74200
O2087       O  0.55926291  0.86341086  0.01337322    -0.74700
O2088       O  0.59081600  0.85939004  0.15195097    -0.74100
O2089       O  0.60751391  0.80689806  0.04143612    -0.74900
O2090       O  0.56840593  0.87852482  0.11434450    -0.74300
O2091       O  0.61381541  0.81751652  0.10980987    -0.74700
O2092       O  0.55591387  0.78855945  0.17126720    -0.74700
O2093       O  0.51181967  0.75520612  0.14414629    -0.74400
C2094       C  0.51674388  0.74174152  0.01299035     0.77300
C2095       C  0.57081690  0.85669824  0.98284787     0.77800
C2096       C  0.97794271  0.80870547  0.08756740     0.76800
C2097       C  0.58550875  0.88038304  0.14440019     0.77200
C2098       C  0.62257492  0.81225322  0.07513235     0.78300
C2099       C  0.53092312  0.76433170  0.17376969     0.77400
Zn2100     Zn  0.74224663  0.53706611  0.97214591     1.49700
Zn2101     Zn  0.71443737  0.98017234  0.91182268     1.49400
Zn2102     Zn  0.67712765  0.51386617  0.93011131     1.49100
Zn2103     Zn  0.73546864  0.54533169  0.87449719     1.49500
O2104       O  0.71713235  0.51890645  0.92240316    -1.83900
O2105       O  0.75657227  0.51087643  0.99732820    -0.74500
O2106       O  0.67097000  0.94711606  0.90955938    -0.74400
O2107       O  0.67405988  0.52851998  0.98807176    -0.73900
O2108       O  0.73655452  0.97071386  0.95615598    -0.74600
O2109       O  0.71919969  0.54495648  0.01628318    -0.74200
O2110       O  0.64553452  0.97050147  0.92261162    -0.74700
O2111       O  0.70923092  0.55905760  0.84908331    -0.74100
O2112       O  0.73334952  0.98027657  0.85628296    -0.74900
O2113       O  0.66760764  0.53695025  0.88708541    -0.74300
O2114       O  0.74411305  0.52423752  0.82930627    -0.74700
O2115       O  0.77407083  0.58193523  0.88980300    -0.74700
O2116       O  0.77946618  0.57600251  0.95792196    -0.74400
C2117       C  0.75270773  0.98536953  0.98744088     0.77300
C2118       C  0.64639237  0.94691921  0.91408467     0.77800
C2119       C  0.69269211  0.54051659  0.01814207     0.76800
C2120       C  0.68293366  0.55382154  0.85677540     0.77200
C2121       C  0.74314069  0.99930818  0.82659734     0.78300
C2122       C  0.78876273  0.59081983  0.92390443     0.77400
Zn2123     Zn  0.78369253  0.91231075  0.12609817     1.49700
Zn2124     Zn  0.84262191  0.94392530  0.07142468     1.49400
Zn2125     Zn  0.77825247  0.92120817  0.02781134     1.49100
Zn2126     Zn  0.80519730  0.97766689  0.08872864     1.49500
O2127       O  0.80258273  0.93892821  0.07837400    -1.83900
O2128       O  0.80982655  0.89814903  0.15174002    -0.74500
O2129       O  0.84628515  0.92933907  0.01375629    -0.74400
O2130       O  0.74142809  0.88184288  0.04082928    -0.73900
O2131       O  0.85163174  0.92045443  0.11412108    -0.74600
O2132       O  0.74532141  0.87574185  0.10938711    -0.74200
O2133       O  0.80190764  0.91408394  0.98382117    -0.74700
O2134       O  0.78342832  0.98725445  0.04405929    -0.74100
O2135       O  0.87420760  0.98726098  0.07965722    -0.74900
O2136       O  0.76355492  0.94715243  0.00280446    -0.74300
O2137       O  0.84871455  0.51075702  0.09143455    -0.74700
O2138       O  0.78566334  0.97744530  0.14380718    -0.74700
O2139       O  0.77438985  0.93341835  0.17113205    -0.74400
C2140       C  0.83612611  0.90328279  0.14403941     0.77300
C2141       C  0.82822688  0.91799022  0.98294916     0.77800
C2142       C  0.73150286  0.86685703  0.07459503     0.76800
C2143       C  0.76734352  0.97262302  0.01272142     0.77200
C2144       C  0.87332177  0.51090064  0.08768899     0.78300
C2145       C  0.77541746  0.95842795  0.17350773     0.77400
C2146       C  0.67695669  0.78614466  0.07395837     0.80400
N2147       N  0.70325191  0.81245205  0.07379144    -0.77900
C2148       C  0.70329317  0.83864693  0.07356632     0.82900
N2149       N  0.67704910  0.83857221  0.07384945    -0.77800
C2150       C  0.65073834  0.81228057  0.07404551     0.83000
N2151       N  0.65067368  0.78604038  0.07420369    -0.79500
Zn2152     Zn  0.87817013  0.76702700  0.92944948     1.49700
Zn2153     Zn  0.83620159  0.79079517  0.96810066     1.49400
Zn2154     Zn  0.85018644  0.79520569  0.86904119     1.49100
Zn2155     Zn  0.80770053  0.73141009  0.91242165     1.49500
O2156       O  0.84305062  0.77119422  0.91994263    -1.83900
O2157       O  0.89533692  0.78281644  0.98651979    -0.74500
O2158       O  0.83937651  0.82982359  0.94929948    -0.74400
O2159       O  0.89036508  0.80772514  0.84323388    -0.73900
O2160       O  0.86693745  0.79959855  0.01398835    -0.74600
O2161       O  0.91057838  0.78889047  0.88612966    -0.74200
O2162       O  0.84924740  0.83285207  0.88068331    -0.74700
O2163       O  0.78768339  0.72846104  0.85696111    -0.74100
O2164       O  0.79510396  0.76396452  0.99421468    -0.74900
O2165       O  0.81882655  0.77169989  0.82578154    -0.74300
O2166       O  0.77710297  0.72170251  0.95766299    -0.74700
O2167       O  0.81871939  0.69925475  0.91413816    -0.74700
O2168       O  0.86763729  0.72404854  0.92666763    -0.74400
C2169       C  0.88880543  0.79487428  0.01648891     0.77300
C2170       C  0.84468280  0.84349235  0.91410665     0.77800
C2171       C  0.91179355  0.80369160  0.85356575     0.76800
C2172       C  0.79533859  0.74598364  0.82548970     0.77200
C2173       C  0.77485039  0.73696732  0.98723719     0.78300
C2174       C  0.84325764  0.69973424  0.92029233     0.77400
Zn2175     Zn  0.64340610  0.64739560  0.07251730     1.49700
Zn2176     Zn  0.67104912  0.70641201  0.12689712     1.49400
Zn2177     Zn  0.71473933  0.68453960  0.08907669     1.49100
Zn2178     Zn  0.68537235  0.71177526  0.02880354     1.49500
O2179       O  0.67870092  0.68742310  0.07922887    -1.83900
O2180       O  0.61105941  0.63843196  0.11561235    -0.74500
O2181       O  0.70136182  0.71539363  0.17179052    -0.74400
O2182       O  0.70395874  0.64095313  0.09104471    -0.73900
O2183       O  0.63080359  0.68023141  0.15310342    -0.74600
O2184       O  0.65467324  0.61571219  0.08030264    -0.74200
O2185       O  0.73369361  0.70343712  0.14465076    -0.74700
O2186       O  0.72644946  0.72718871  0.00422375    -0.74100
O2187       O  0.67272299  0.74466151  0.11025957    -0.74900
O2188       O  0.74636166  0.70647853  0.04418698    -0.74300
O2189       O  0.68193454  0.74802692  0.04145752    -0.74700
O2190       O  0.65500577  0.68762095  0.98452416    -0.74700
O2191       O  0.62526963  0.64348560  0.01488180    -0.74400
C2192       C  0.60956856  0.65387075  0.14567793     0.77300
C2193       C  0.72501468  0.71376610  0.17435089     0.77800
C2194       C  0.67920436  0.61642874  0.08757652     0.76800
C2195       C  0.74792330  0.72296576  0.01343967     0.77200
C2196       C  0.67707586  0.75808576  0.07523369     0.78300
C2197       C  0.63242542  0.66130131  0.98375287     0.77400
C2198       C  0.91743508  0.82185244  0.37430735     0.80400
N2199       N  0.90053799  0.81500095  0.40987738    -0.77900
C2200       C  0.90810054  0.80504927  0.44465914     0.82900
N2201       N  0.93293433  0.80254380  0.44401239    -0.77800
C2202       C  0.95019357  0.80976064  0.40906139     0.83000
N2203       N  0.94248125  0.81945371  0.37400447    -0.79500
Zn2204     Zn  0.90067468  0.88212533  0.19849854     1.49700
Zn2205     Zn  0.90001945  0.88187284  0.30024539     1.49400
Zn2206     Zn  0.84005303  0.85207602  0.24870967     1.49100
Zn2207     Zn  0.88190681  0.82181361  0.24956705     1.49500
O2208       O  0.88071372  0.85932404  0.24920363    -1.83900
O2209       O  0.94042803  0.91751119  0.21467288    -0.74500
O2210       O  0.87524770  0.89654692  0.33036361    -0.74400
O2211       O  0.83202790  0.87089531  0.19903437    -0.73900
O2212       O  0.93982756  0.91736377  0.28497751    -0.74600
O2213       O  0.87629893  0.89715471  0.16796537    -0.74200
O2214       O  0.83143397  0.87086847  0.29807889    -0.74700
O2215       O  0.83909161  0.78647434  0.25023487    -0.74100
O2216       O  0.90728785  0.85650256  0.34130661    -0.74900
O2217       O  0.81135921  0.80834516  0.24879390    -0.74300
O2218       O  0.90252166  0.81842531  0.30269161    -0.74700
O2219       O  0.90184578  0.81787307  0.19605897    -0.74700
O2220       O  0.90798619  0.85653778  0.15761234    -0.74400
C2221       C  0.95263943  0.92853046  0.25000671     0.77300
C2222       C  0.84789708  0.88918507  0.32632904     0.77800
C2223       C  0.84883462  0.88957448  0.17136402     0.76800
C2224       C  0.81379486  0.78512738  0.24965600     0.77200
C2225       C  0.90897636  0.83294477  0.33727863     0.78300
C2226       C  0.90886830  0.83253208  0.16158542     0.77400
C2227       C  0.91706570  0.82104451  0.12465871     0.80400
N2228       N  0.89992777  0.81374685  0.08934450    -0.77900
C2229       C  0.90723854  0.80332308  0.05473326     0.82900
N2230       N  0.93207331  0.80079712  0.05529638    -0.77800
C2231       C  0.94957536  0.80847757  0.09000424     0.83000
N2232       N  0.94210410  0.81865001  0.12485187    -0.79500
loop_ 
_geom_bond_atom_site_label_1 
_geom_bond_atom_site_label_2 
_geom_bond_distance 
_geom_bond_site_symmetry_2 
_ccdc_geom_bond_type 
C1            N2   1.355       .  A
C1            N6   1.353       .  A
C1          C258   1.458       .  S
N2            C3   1.358       .  A
C3            N4   1.359       .  A
C3          C703   1.462       .  S
N4            C5   1.356       .  A
C5            N6   1.353       .  A
C5          C447   1.452       .  S
C7            N8   1.358       .  A
C7           N12   1.351       .  A
C7          C471   1.456       .  S
N8            C9   1.361       .  A
C9           N10   1.361       .  A
C9          C179   1.461       .  S
N10          C11   1.358       .  A
C11          N12   1.351       .  A
C11         C282   1.456       .  S
C13          N14   1.352       .  A
C13          N18   1.357       .  A
C13         C335   1.456       .  S
N14          C15   1.352       .  A
C15          N16   1.356       .  A
C15         C519   1.455       .  S
N16          C17   1.359       .  A
C17          N18   1.360       .  A
C17         C550   1.456       .  S
C19          N20   1.353       .  A
C19          N24   1.358       .  A
C19         C498   1.461       .  S
N20          C21   1.353       .  A
C21          N22   1.359       .  A
C21         C311   1.463       .  S
N22          C23   1.360       .  A
C23          N24   1.358       .  A
C23         C363   1.458       .  S
C25          N26   1.360       .  A
C25          N30   1.358       .  A
C25        C1228   1.457       .  S
N26          C27   1.358       .  A
C27          N28   1.353   1_455  A
C27        C1329   1.457   1_455  S
N28          C29   1.353       .  A
C29          N30   1.357   1_655  A
C29        C1515   1.460       .  S
C31          N32   1.361       .  A
C31          N36   1.360       .  A
C31          C72   1.460       .  S
N32          C33   1.358       .  A
C33          N34   1.351       .  A
C33         C425   1.456       .  S
N34          C35   1.351       .  A
C35          N36   1.357       .  A
C35         C236   1.454       .  S
C37          N38   1.356       .  A
C37         N600   1.357       .  A
C37         C181   1.455       .  S
N38        C1155   1.356   1_455  A
C39          N40   1.356       .  A
C39        N1154   1.356       .  A
C39         C547   1.454       .  S
N40        C1715   1.356       .  A
C41          N42   1.356       .  A
C41        N1714   1.356   1_445  A
C41          C75   1.455       .  S
N42         C595   1.357   1_545  A
C43          N48   1.357       .  A
C43        N1718   1.359       .  A
C43         C700   1.465       .  S
N44          C45   1.356       .  A
N44        C1717   1.359   1_445  A
C45         N604   1.355   1_545  A
C45         C367   1.455       .  S
N46          C47   1.355       .  A
N46         C603   1.355       .  A
C47        N1164   1.356   1_455  A
C47        C1224   1.453       .  S
N48        C1163   1.356       .  A
C49          N50   1.362       .  A
C49          N54   1.362       .  A
C49          C73   1.471       .  S
N50          C51   1.360       .  A
C51          N52   1.355       .  A
C51         C401   1.469       .  S
N52          C53   1.353       .  A
C53          N54   1.362       .  A
C53         C470   1.462       .  S
Zn55         O59   1.943       .  S
Zn55         O60   1.993       .  S
Zn55         O64   2.006       .  S
Zn55         O71   2.011       .  S
Zn56         O59   1.975   1_655  S
Zn56         O63   2.046       .  S
Zn56       O1177   2.052       .  S
Zn56       O1183   2.050       .  S
Zn57         O59   1.955       .  S
Zn57         O62   2.026       .  S
Zn57         O65   2.019   1_455  S
Zn57         O68   2.016       .  S
Zn58         O59   1.956       .  S
Zn58         O66   2.010       .  S
Zn58         O69   2.011   1_455  S
Zn58         O70   2.030       .  S
O60          C72   1.272       .  A
O61       Zn1172   2.052       .  S
O61          C73   1.277       .  A
O62          C74   1.273       .  A
O63          C72   1.276   1_655  A
O64          C74   1.272       .  A
O65        C1189   1.273       .  A
O66          C75   1.273       .  A
O67       Zn1172   2.050       .  S
O67          C76   1.277       .  A
O68          C75   1.273       .  A
O69        C1192   1.273       .  A
O70          C77   1.273       .  A
O71          C77   1.272       .  A
C73        O1181   1.273       .  A
C74         C518   1.469       .  S
C76          C78   1.467       .  S
C76        O1185   1.273       .  A
C77         C336   1.471       .  S
C78          N79   1.359       .  A
C78          N83   1.362       .  A
N79          C80   1.356       .  A
C80          N81   1.354       .  A
C80         C217   1.457       .  S
N81          C82   1.355       .  A
C82          N83   1.362       .  A
C82         C284   1.461       .  S
C84          N85   1.362       .  A
C84          N89   1.358       .  A
C84         C109   1.468       .  S
N85          C86   1.364       .  A
C86          N87   1.355       .  A
C86         C262   1.470       .  S
N87          C88   1.353       .  A
C88          N89   1.356       .  A
C88         C240   1.455       .  S
Zn90       O1210   1.973       .  S
Zn90         O95   2.056       .  S
Zn90         O99   2.053       .  S
Zn90        O106   2.047       .  S
Zn91         O94   1.947       .  S
Zn91         O96   2.006       .  S
Zn91        O102   2.018       .  S
Zn91       O1214   2.009       .  S
Zn92         O94   1.946       .  S
Zn92        O100   2.007       .  S
Zn92        O103   2.019       .  S
Zn92       O1213   2.013       .  S
Zn93         O94   1.947       .  S
Zn93        O101   2.009       .  S
Zn93        O104   2.013       .  S
Zn93        O105   1.985       .  S
O94       Zn1206   1.973       .  S
O95         C107   1.278       .  A
O96         C108   1.271       .  A
O97       Zn1208   2.013   1_455  S
O97         C109   1.273       .  A
O98       Zn1207   2.009   1_455  S
O98         C107   1.273       .  A
O99         C109   1.277       .  A
O100        C108   1.272       .  A
O101        C110   1.270       .  A
O102        C111   1.271       .  A
O103        C110   1.272       .  A
O104        C111   1.271       .  A
O105        C112   1.270       .  A
O106       C1228   1.276       .  A
C107        C113   1.468       .  S
C108       C1163   1.453       .  S
C110        C314   1.459       .  S
C111        C497   1.459       .  S
C112       C1141   1.457       .  S
C112       O1222   1.276       .  A
C113        N114   1.359       .  A
C113        N118   1.362       .  A
N114        C115   1.356       .  A
C115        N116   1.353       .  A
C115        C421   1.457       .  S
N116        C117   1.354       .  A
C117        N118   1.363       .  A
C117        C444   1.461       .  S
C119        N120   1.363       .  A
C119        N124   1.360       .  A
C119        C146   1.476       .  S
N120        C121   1.365       .  A
C121        N122   1.357       .  A
C121        C310   1.471       .  S
N122        C123   1.354       .  A
C123        N124   1.355       .  A
C123        C286   1.459       .  S
Zn125       O129   1.952   1_545  S
Zn125       O130   2.000       .  S
Zn125       O134   2.011       .  S
Zn125       O141   2.013       .  S
Zn126       O687   1.975       .  S
Zn126       O131   2.061       .  S
Zn126       O133   2.024       .  S
Zn126       O137   2.058       .  S
Zn127       O129   1.953       .  S
Zn127       O132   2.024   1_565  S
Zn127       O138   2.007       .  S
Zn127       O693   1.995       .  S
Zn128       O129   1.946       .  S
Zn128       O136   2.001       .  S
Zn128       O140   2.026   1_565  S
Zn128       O697   2.006       .  S
O129       Zn684   1.975       .  S
O130        C142   1.272   1_545  A
O131        C143   1.278       .  A
O132        C144   1.272       .  A
O133        C700   1.275       .  A
O134        C144   1.273       .  A
O135       Zn685   1.995       .  S
O135        C143   1.272       .  A
O136        C145   1.272       .  A
O137        C146   1.279       .  A
O138        C145   1.272       .  A
O139       Zn686   2.006       .  S
O139        C146   1.274       .  A
O140        C147   1.272       .  A
O141        C147   1.271       .  A
C142        C601   1.465       .  S
C142        O691   1.275       .  A
C143        C148   1.475       .  S
C144        C402   1.469       .  S
C145        C561   1.462       .  S
C147        C215   1.462       .  S
C148        N149   1.360       .  A
C148        N153   1.363       .  A
N149        C150   1.354       .  A
C150        N151   1.353       .  A
C150        C467   1.458       .  S
N151        C152   1.357       .  A
C152        N153   1.366       .  A
C152        C496   1.471       .  S
C154        N155   1.359       .  A
C154        N159   1.363       .  A
C154        C180   1.469       .  S
N155        C156   1.356       .  A
C156        N157   1.354       .  A
C156        C445   1.458       .  S
N157        C158   1.355       .  A
C158        N159   1.363       .  A
C158        C520   1.463       .  S
Zn160       O164   1.943       .  S
Zn160       O165   2.004       .  S
Zn160       O169   1.991       .  S
Zn160       O176   2.007       .  S
Zn161       O164   1.958       .  S
Zn161       O166   2.017       .  S
Zn161       O168   2.030       .  S
Zn161       O172   2.016       .  S
Zn162       O164   1.977       .  S
Zn162       O167   2.051       .  S
Zn162       O728   2.053       .  S
Zn162       O731   2.051       .  S
Zn163       O164   1.957       .  S
Zn163       O171   2.016       .  S
Zn163       O174   2.011       .  S
Zn163       O175   2.038       .  S
O165        C177   1.271       .  A
O166        C736   1.273       .  A
O167        C179   1.276       .  A
O168        C177   1.274       .  A
O169        C179   1.271       .  A
O170       Zn720   2.053       .  S
O170        C178   1.277       .  A
O171        C738   1.273       .  A
O172        C181   1.273       .  A
O173       Zn720   2.051       .  S
O173        C180   1.277       .  A
O174        C181   1.273       .  A
O175        C182   1.274       .  A
O176        C182   1.271       .  A
C177        C237   1.469       .  S
C178        C183   1.470       .  S
C178        O724   1.273   1_545  A
C180        O729   1.273   1_545  A
C182        C423   1.473       .  S
C183        N184   1.363       .  A
C183        N188   1.360       .  A
N184        C185   1.362       .  A
C185        N186   1.354       .  A
C185        C338   1.464       .  S
N186        C187   1.356       .  A
C187        N188   1.358       .  A
C187        C261   1.468       .  S
C189        N190   1.358       .  A
C189        N194   1.360       .  A
C189        C313   1.468       .  S
N190        C191   1.357       .  A
C191        N192   1.358       .  A
C191        C260   1.466       .  S
N192        C193   1.356       .  A
C193        N194   1.359       .  A
C193        C214   1.460       .  S
Zn195       O199   1.961       .  S
Zn195       O200   2.009       .  S
Zn195       O204   2.016       .  S
Zn195       O211   2.007       .  S
Zn196      O1315   1.970   1_455  S
Zn196       O201   2.016       .  S
Zn196       O203   2.024       .  S
Zn196       O207   2.034       .  S
Zn197       O199   1.951       .  S
Zn197       O202   2.016       .  S
Zn197       O205   2.003       .  S
Zn197       O208   2.014       .  S
Zn198       O199   1.965       .  S
Zn198       O206   2.023       .  S
Zn198       O210   2.026       .  S
Zn198      O1325   2.015       .  S
O199      Zn1312   1.970       .  S
O200       C1328   1.271       .  A
O201       C1329   1.271   1_455  A
O202        C214   1.272       .  A
O203        C212   1.274       .  A
O204        C214   1.271       .  A
O205        C213   1.273       .  A
O206        C215   1.271       .  A
O207        C216   1.275       .  A
O208        C215   1.271       .  A
O209      Zn1314   2.015   1_455  S
O209        C216   1.272       .  A
O210        C217   1.275       .  A
O211        C217   1.272       .  A
C212        C239   1.469       .  S
C212       O1316   1.271   1_455  A
C213       C1143   1.457       .  S
C213       O1317   1.271       .  A
C216        C343   1.463       .  S
Zn218       O222   1.964       .  S
Zn218       O223   2.015       .  S
Zn218       O227   2.024       .  S
Zn218       O234   2.021       .  S
Zn219       O222   1.969       .  S
Zn219       O224   2.015       .  S
Zn219       O230   2.028       .  S
Zn219      O1342   2.036   1_455  S
Zn220       O222   1.948       .  S
Zn220       O225   2.007       .  S
Zn220       O228   1.995       .  S
Zn220       O231   2.009       .  S
Zn221       O222   1.958       .  S
Zn221       O229   2.009       .  S
Zn221       O232   2.003       .  S
Zn221       O233   2.004       .  S
O223       C1351   1.273   1_455  A
O224        C236   1.271       .  A
O225        C237   1.272       .  A
O226      Zn1335   2.036       .  S
O226        C235   1.275       .  A
O227        C237   1.272       .  A
O228        C236   1.271       .  A
O229        C238   1.270       .  A
O230        C239   1.274       .  A
O231        C238   1.271       .  A
O232        C239   1.270       .  A
O233        C240   1.272       .  A
O234        C240   1.274       .  A
C235        C528   1.463       .  S
C235       O1339   1.273       .  A
C238        C289   1.456       .  S
Zn241       O245   1.961       .  S
Zn241       O246   2.002       .  S
Zn241       O250   2.004       .  S
Zn241       O257   2.007       .  S
Zn242       O245   1.958       .  S
Zn242       O247   2.009       .  S
Zn242       O807   1.999   1_545  S
Zn242       O811   2.001   1_545  S
Zn243       O245   1.960       .  S
Zn243       O248   2.017       .  S
Zn243       O251   2.030       .  S
Zn243       O254   2.005       .  S
Zn244       O803   1.963       .  S
Zn244       O255   2.039       .  S
Zn244       O256   2.044       .  S
Zn244       O810   2.032       .  S
O245       Zn802   1.963   1_545  S
O246        C816   1.271       .  A
O247        C259   1.270       .  A
O248        C260   1.273       .  A
O249       Zn800   1.999       .  S
O249        C258   1.272       .  A
O250        C260   1.271       .  A
O251        C259   1.272       .  A
O252       Zn802   2.032   1_545  S
O252        C261   1.276       .  A
O253       Zn800   2.001       .  S
O253        C262   1.270       .  A
O254        C261   1.274       .  A
O255        C262   1.278       .  A
O256        C263   1.275       .  A
O257        C821   1.270   1_545  A
C258        O804   1.271       .  A
C259        C365   1.462       .  S
C263        C283   1.465       .  S
C263        O815   1.270       .  A
Zn264       O268   1.960       .  S
Zn264       O269   2.006       .  S
Zn264       O273   2.015       .  S
Zn264       O280   2.012       .  S
Zn265       O268   1.951       .  S
Zn265       O270   1.997       .  S
Zn265       O272   2.003       .  S
Zn265       O276   2.011       .  S
Zn266       O268   1.971       .  S
Zn266       O271   2.034       .  S
Zn266       O274   2.019       .  S
Zn266       O835   2.032       .  S
Zn267       O268   1.965       .  S
Zn267       O275   2.015       .  S
Zn267       O278   2.027       .  S
Zn267       O279   2.022       .  S
O269        C281   1.271       .  A
O270        C282   1.272       .  A
O271        C283   1.274       .  A
O272        C281   1.270       .  A
O273        C283   1.271       .  A
O274        C282   1.272       .  A
O275        C842   1.273       .  A
O276        C285   1.271       .  A
O277       Zn824   2.032   1_545  S
O277        C284   1.275       .  A
O278        C285   1.272       .  A
O279        C286   1.274       .  A
O280        C286   1.272       .  A
C281        C291   1.453       .  S
C284        O833   1.273   1_545  A
C285        C548   1.471       .  S
C287        N288   1.358       .  A
C287        N292   1.356       .  A
C287        C334   1.456       .  S
N288        C289   1.358       .  A
C289        N290   1.355       .  A
N290        C291   1.355       .  A
C291        N292   1.355       .  A
Zn293       O297   1.963       .  S
Zn293       O298   2.032       .  S
Zn293       O302   2.035       .  S
Zn293       O309   2.033       .  S
Zn294       O297   1.960       .  S
Zn294       O299   2.009       .  S
Zn294       O301   2.013       .  S
Zn294       O305   2.016       .  S
Zn295       O297   1.961       .  S
Zn295       O300   1.999       .  S
Zn295       O303   2.014       .  S
Zn295       O306   2.013       .  S
Zn296       O297   1.960       .  S
Zn296       O304   2.015       .  S
Zn296       O307   2.014       .  S
Zn296       O308   2.001       .  S
O298        C310   1.277       .  A
O299        C311   1.273       .  A
O300        C312   1.269       .  A
O301        C310   1.272       .  A
O302        C312   1.275       .  A
O303        C311   1.272       .  A
O304        C313   1.272       .  A
O305        C314   1.272       .  A
O306        C313   1.273       .  A
O307        C314   1.271       .  A
O308        C315   1.273       .  A
O309        C315   1.275       .  A
C312        C333   1.460       .  S
C315        C526   1.468       .  S
Zn316       O320   1.970       .  S
Zn316       O321   2.025       .  S
Zn316       O325   2.016       .  S
Zn316       O332   2.031       .  S
Zn317       O320   1.961       .  S
Zn317       O322   2.013       .  S
Zn317       O324   2.011       .  S
Zn317       O328   2.010       .  S
Zn318       O320   1.949       .  S
Zn318       O323   1.998       .  S
Zn318       O326   2.007       .  S
Zn318       O329   2.002       .  S
Zn319       O320   1.966       .  S
Zn319       O327   2.035       .  S
Zn319       O330   2.028       .  S
Zn319       O331   2.022       .  S
O321        C333   1.273       .  A
O322        C334   1.271       .  A
O323        C335   1.271       .  A
O324        C333   1.271       .  A
O325        C335   1.271       .  A
O326        C334   1.270       .  A
O327        C336   1.273       .  A
O328        C337   1.272       .  A
O329        C336   1.271       .  A
O330        C337   1.275       .  A
O331        C338   1.274       .  A
O332        C338   1.275       .  A
C337        C341   1.459       .  S
C339        N340   1.360       .  A
C339        N344   1.363       .  A
C339        C366   1.470       .  S
N340        C341   1.357       .  A
C341        N342   1.354       .  A
N342        C343   1.354       .  A
C343        N344   1.363       .  A
Zn345       O349   1.958       .  S
Zn345       O350   2.010       .  S
Zn345       O354   2.029       .  S
Zn345       O361   2.014       .  S
Zn346       O349   1.975       .  S
Zn346       O351   2.047       .  S
Zn346       O353   2.057       .  S
Zn346       O357   2.054       .  S
Zn347       O349   1.945       .  S
Zn347       O352   2.005       .  S
Zn347       O355   1.983       .  S
Zn347       O358   2.006       .  S
Zn348       O349   1.954       .  S
Zn348       O356   2.033       .  S
Zn348       O359   2.020       .  S
Zn348       O360   2.013       .  S
O350        C362   1.272       .  A
O351        C363   1.276       .  A
O352        C364   1.272       .  A
O353        C362   1.278       .  A
O354        C364   1.273       .  A
O355        C363   1.269       .  A
O356        C365   1.273       .  A
O357        C366   1.277       .  A
O358        C365   1.269       .  A
O359        C366   1.274       .  A
O360        C367   1.273       .  A
O361        C367   1.273       .  A
C362        C368   1.469       .  S
C364        C446   1.469       .  S
C368        N369   1.361       .  A
C368        N373   1.359       .  A
N369        C370   1.364       .  A
C370        N371   1.355       .  A
C370        C397   1.470       .  S
N371        C372   1.354       .  A
C372        N373   1.357       .  A
C372        C523   1.457       .  S
C374        N375   1.359       .  A
C374        N379   1.357       .  A
C374        C500   1.466       .  S
N375        C376   1.359       .  A
C376        N377   1.358       .  A
C376        C400   1.469       .  S
N377        C378   1.357       .  A
C378        N379   1.355       .  A
C378        C448   1.456       .  S
Zn380       O384   1.954       .  S
Zn380       O389   1.997       .  S
Zn380       O396   1.998       .  S
Zn380      O1501   2.000       .  S
Zn381       O384   1.965       .  S
Zn381       O392   2.032   1_556  S
Zn381      O1502   2.034       .  S
Zn381      O1504   2.038       .  S
Zn382       O384   1.962       .  S
Zn382       O387   2.012       .  S
Zn382       O390   2.000       .  S
Zn382       O393   2.011       .  S
Zn383       O384   1.962       .  S
Zn383       O391   2.022       .  S
Zn383       O394   2.008       .  S
Zn383       O395   2.035       .  S
O385      Zn1496   2.000   1_455  S
O385        C397   1.270       .  A
O386      Zn1497   2.034   1_455  S
O386        C398   1.274       .  A
O387        C399   1.272       .  A
O388      Zn1497   2.038   1_455  S
O388        C397   1.277       .  A
O389        C399   1.271       .  A
O390       C1514   1.269       .  A
O391        C400   1.274       .  A
O392        C401   1.275       .  A
O393        C400   1.272       .  A
O394        C401   1.274   1_556  A
O395        C402   1.274       .  A
O396        C402   1.270       .  A
C398        C420   1.460   1_556  S
C398       O1506   1.269   1_455  A
C399       C1145   1.460       .  S
Zn403       O407   1.972       .  S
Zn403       O408   2.026       .  S
Zn403       O419   2.018       .  S
Zn403      O1528   2.037   1_455  S
Zn404       O407   1.960       .  S
Zn404       O409   2.004   1_554  S
Zn404       O411   2.006       .  S
Zn404       O415   2.010       .  S
Zn405       O407   1.968       .  S
Zn405       O410   2.018       .  S
Zn405       O413   2.028       .  S
Zn405       O416   2.035       .  S
Zn406       O407   1.949       .  S
Zn406       O414   2.009       .  S
Zn406       O417   2.012       .  S
Zn406       O418   1.998       .  S
O408        C420   1.273       .  A
O409        C421   1.272       .  A
O410       C1538   1.273   1_455  A
O411        C420   1.270       .  A
O412      Zn1519   2.037       .  S
O412        C422   1.275       .  A
O413        C421   1.275   1_554  A
O414        C423   1.272       .  A
O415        C424   1.270       .  A
O416        C423   1.273       .  A
O417        C424   1.271       .  A
O418        C425   1.272       .  A
O419        C425   1.272       .  A
C422        C557   1.464       .  S
C422       O1526   1.273       .  A
C424        C476   1.457       .  S
Zn426       O430   1.960       .  S
Zn426       O431   2.012       .  S
Zn426       O435   2.010   1_556  S
Zn426       O442   2.016       .  S
Zn427       O988   1.969       .  S
Zn427       O432   2.028       .  S
Zn427       O434   2.026       .  S
Zn427       O438   2.015       .  S
Zn428       O430   1.966       .  S
Zn428       O433   2.027       .  S
Zn428       O439   2.035       .  S
Zn428       O994   2.018   1_545  S
Zn429       O430   1.944       .  S
Zn429       O437   1.995       .  S
Zn429       O440   1.985       .  S
Zn429       O441   2.001       .  S
O430       Zn985   1.969   1_545  S
O431       C1001   1.272   1_545  A
O432        C444   1.275       .  A
O433        C445   1.275   1_556  A
O434        C443   1.274       .  A
O435        C445   1.273       .  A
O436       Zn986   2.018       .  S
O436        C444   1.273       .  A
O437        C446   1.270       .  A
O438        C447   1.271       .  A
O439        C446   1.273       .  A
O440       C1005   1.270   1_545  A
O441        C448   1.270       .  A
O442        C448   1.271       .  A
C443        C469   1.470   1_556  S
C443        O989   1.272       .  A
C447        O998   1.270       .  A
Zn449       O453   1.948       .  S
Zn449       O454   2.009       .  S
Zn449       O458   2.005       .  S
Zn449       O465   2.000       .  S
Zn450       O453   1.966       .  S
Zn450       O455   2.025       .  S
Zn450       O457   2.028       .  S
Zn450       O461   2.020       .  S
Zn451       O453   1.961       .  S
Zn451       O456   2.010       .  S
Zn451       O459   2.009   1_554  S
Zn451       O462   2.013       .  S
Zn452       O453   1.969       .  S
Zn452       O460   2.025       .  S
Zn452       O464   2.016       .  S
Zn452      O1021   2.031       .  S
O454        C466   1.272       .  A
O455        C467   1.274   1_554  A
O456        C468   1.271       .  A
O457        C466   1.272       .  A
O458        C468   1.270       .  A
O459        C467   1.272       .  A
O460        C469   1.274       .  A
O461       C1028   1.274       .  A
O462        C469   1.272       .  A
O463      Zn1010   2.031   1_545  S
O463        C470   1.275       .  A
O464        C471   1.271       .  A
O465        C471   1.272       .  A
C466        C549   1.471       .  S
C468        C474   1.455       .  S
C470       O1019   1.274   1_545  A
C472        N473   1.356       .  A
C472        N477   1.357       .  A
C472        C522   1.457       .  S
N473        C474   1.356       .  A
C474        N475   1.356       .  A
N475        C476   1.356       .  A
C476        N477   1.358       .  A
Zn478       O482   1.959       .  S
Zn478       O483   2.003       .  S
Zn478       O487   2.017       .  S
Zn478       O494   2.009       .  S
Zn479       O482   1.963       .  S
Zn479       O484   2.034       .  S
Zn479       O486   2.034   1_556  S
Zn479       O490   2.039       .  S
Zn480       O482   1.959       .  S
Zn480       O485   2.013       .  S
Zn480       O488   2.009       .  S
Zn480       O491   2.004       .  S
Zn481       O482   1.962       .  S
Zn481       O489   2.011       .  S
Zn481       O492   2.004       .  S
Zn481       O493   2.015       .  S
O483        C495   1.273   1_556  A
O484        C496   1.277       .  A
O485        C497   1.271       .  A
O486        C495   1.275       .  A
O487        C497   1.271       .  A
O488        C496   1.271       .  A
O489        C498   1.272       .  A
O490        C499   1.275       .  A
O491        C498   1.273       .  A
O492        C499   1.270       .  A
O493        C500   1.273       .  A
O494        C500   1.272       .  A
C495        C555   1.469       .  S
C499        C521   1.463   1_556  S
Zn501       O505   1.965       .  S
Zn501       O506   2.025       .  S
Zn501       O510   2.015       .  S
Zn501       O517   2.022       .  S
Zn502       O505   1.951       .  S
Zn502       O507   1.995       .  S
Zn502       O509   2.005       .  S
Zn502       O513   2.011       .  S
Zn503       O505   1.970       .  S
Zn503       O508   2.036       .  S
Zn503       O511   2.017       .  S
Zn503       O514   2.031       .  S
Zn504       O505   1.960       .  S
Zn504       O512   2.013       .  S
Zn504       O515   2.014       .  S
Zn504       O516   2.008   1_554  S
O506        C518   1.272       .  A
O507        C519   1.271       .  A
O508        C520   1.275       .  A
O509        C518   1.271       .  A
O510        C520   1.273       .  A
O511        C519   1.272       .  A
O512        C521   1.271       .  A
O513        C522   1.271       .  A
O514        C521   1.274       .  A
O515        C522   1.271       .  A
O516        C523   1.272       .  A
O517        C523   1.274   1_554  A
C524        N525   1.361       .  A
C524        N529   1.363       .  A
C524        C551   1.470       .  S
N525        C526   1.359       .  A
C526        N527   1.355       .  A
N527        C528   1.353       .  A
C528        N529   1.362       .  A
Zn530       O534   1.956       .  S
Zn530       O535   2.014       .  S
Zn530       O539   2.033       .  S
Zn530       O546   2.022       .  S
Zn531       O534   1.953       .  S
Zn531       O536   2.028       .  S
Zn531       O538   2.010       .  S
Zn531       O542   2.018       .  S
Zn532       O534   1.942       .  S
Zn532       O537   2.007       .  S
Zn532       O540   2.009       .  S
Zn532       O543   1.986       .  S
Zn533       O534   1.975       .  S
Zn533       O541   2.042       .  S
Zn533       O544   2.052       .  S
Zn533       O545   2.050       .  S
O535        C547   1.274       .  A
O536        C548   1.273       .  A
O537        C549   1.271       .  A
O538        C547   1.273       .  A
O539        C549   1.274       .  A
O540        C548   1.272       .  A
O541        C550   1.275       .  A
O542        C551   1.273       .  A
O543        C550   1.271       .  A
O544        C551   1.277       .  A
O545        C552   1.277       .  A
O546        C552   1.274       .  A
C552        C553   1.470       .  S
C553        N554   1.361       .  A
C553        N558   1.362       .  A
N554        C555   1.359       .  A
C555        N556   1.356       .  A
N556        C557   1.354       .  A
C557        N558   1.362       .  A
C559        N560   1.355       .  A
C559        N564   1.353       .  A
C559        C816   1.458   1_565  S
N560        C561   1.358       .  A
C561        N562   1.359       .  A
N562        C563   1.356       .  A
C563        N564   1.353       .  A
C563       C1005   1.452       .  S
C565        N566   1.358       .  A
C565        N570   1.351       .  A
C565       C1029   1.456       .  S
N566        C567   1.361       .  A
C567        N568   1.361       .  A
C567        C737   1.461       .  S
N568        C569   1.358       .  A
C569        N570   1.351       .  A
C569        C840   1.456       .  S
C571        N572   1.352       .  A
C571        N576   1.357       .  A
C571        C893   1.456       .  S
N572        C573   1.352       .  A
C573        N574   1.356       .  A
C573       C1077   1.455       .  S
N574        C575   1.359       .  A
C575        N576   1.360       .  A
C575       C1108   1.456       .  S
C577        N578   1.353       .  A
C577        N582   1.358       .  A
C577       C1056   1.461       .  S
N578        C579   1.353       .  A
C579        N580   1.359       .  A
C579        C869   1.463       .  S
N580        C581   1.360       .  A
C581        N582   1.358       .  A
C581        C921   1.458       .  S
C583        N584   1.360       .  A
C583        N588   1.358       .  A
C583       C1786   1.457       .  S
N584        C585   1.358       .  A
C585        N586   1.353   1_455  A
C585       C1887   1.457   1_455  S
N586        C587   1.353       .  A
C587        N588   1.357   1_655  A
C587       C2073   1.460       .  S
C589        N590   1.361       .  A
C589        N594   1.360       .  A
C589        C630   1.460       .  S
N590        C591   1.358       .  A
C591        N592   1.351       .  A
C591        C983   1.456       .  S
N592        C593   1.351       .  A
C593        N594   1.357       .  A
C593        C794   1.454       .  S
C595        N596   1.356       .  A
C595        C739   1.455       .  S
N596       C1713   1.356   1_455  A
C597       N1712   1.356       .  A
C597        N598   1.356       .  A
C597       C1105   1.454       .  S
N598       C1157   1.356   1_565  A
C599       N1156   1.356   1_455  A
C599        N600   1.356       .  A
C599        C633   1.455       .  S
C601       N1160   1.359   1_565  A
C601        N606   1.357       .  A
N602       C1159   1.359   1_455  A
N602        C603   1.356       .  A
C603        C925   1.455       .  S
N604        C605   1.355       .  A
C605       N1722   1.356   1_455  A
C605       C1782   1.453       .  S
N606       C1721   1.356       .  A
C607        N608   1.362       .  A
C607        N612   1.362       .  A
C607        C631   1.471       .  S
N608        C609   1.360       .  A
C609        N610   1.355       .  A
C609        C959   1.469       .  S
N610        C611   1.353       .  A
C611        N612   1.362       .  A
C611       C1028   1.462       .  S
Zn613       O617   1.943       .  S
Zn613       O618   1.993       .  S
Zn613       O622   2.006       .  S
Zn613       O629   2.011       .  S
Zn614       O617   1.975   1_655  S
Zn614      O1735   2.052       .  S
Zn614       O621   2.046       .  S
Zn614      O1741   2.050       .  S
Zn615       O617   1.955       .  S
Zn615       O620   2.026       .  S
Zn615       O623   2.019   1_455  S
Zn615       O626   2.016       .  S
Zn616       O617   1.956       .  S
Zn616       O624   2.010       .  S
Zn616       O627   2.011   1_455  S
Zn616       O628   2.030       .  S
O618        C630   1.272       .  A
O619      Zn1730   2.052       .  S
O619        C631   1.277       .  A
O620        C632   1.273       .  A
O621        C630   1.276   1_655  A
O622        C632   1.272       .  A
O623       C1747   1.273       .  A
O624        C633   1.273       .  A
O625      Zn1730   2.050       .  S
O625        C634   1.277       .  A
O626        C633   1.273       .  A
O627       C1750   1.273       .  A
O628        C635   1.273       .  A
O629        C635   1.272       .  A
C631       O1739   1.273       .  A
C632       C1076   1.469       .  S
C634        C636   1.467       .  S
C634       O1743   1.273       .  A
C635        C894   1.471       .  S
C636        N637   1.359       .  A
C636        N641   1.362       .  A
N637        C638   1.356       .  A
C638        N639   1.354       .  A
C638        C775   1.457       .  S
N639        C640   1.355       .  A
C640        N641   1.362       .  A
C640        C842   1.461       .  S
C642        N643   1.362       .  A
C642        N647   1.358       .  A
C642        C667   1.468       .  S
N643        C644   1.364       .  A
C644        N645   1.355       .  A
C644        C820   1.470       .  S
N645        C646   1.353       .  A
C646        N647   1.356       .  A
C646        C798   1.455       .  S
Zn648      O1768   1.973       .  S
Zn648       O653   2.056       .  S
Zn648       O657   2.053       .  S
Zn648       O664   2.047       .  S
Zn649       O652   1.947       .  S
Zn649       O654   2.006       .  S
Zn649      O1772   2.009       .  S
Zn649       O660   2.018       .  S
Zn650       O652   1.946       .  S
Zn650      O1771   2.013       .  S
Zn650       O658   2.007       .  S
Zn650       O661   2.019       .  S
Zn651       O652   1.947       .  S
Zn651       O659   2.009       .  S
Zn651       O662   2.013       .  S
Zn651       O663   1.985       .  S
O652      Zn1764   1.973       .  S
O653        C665   1.278       .  A
O654        C666   1.271       .  A
O655      Zn1766   2.013   1_455  S
O655        C667   1.273       .  A
O656      Zn1765   2.009   1_455  S
O656        C665   1.273       .  A
O657        C667   1.277       .  A
O658        C666   1.272       .  A
O659        C668   1.270       .  A
O660        C669   1.271       .  A
O661        C668   1.272       .  A
O662        C669   1.271       .  A
O663        C670   1.270       .  A
O664       C1786   1.276       .  A
C665        C671   1.468       .  S
C666       C1721   1.453       .  S
C668        C872   1.459       .  S
C669       C1055   1.459       .  S
C670       C1699   1.457       .  S
C670       O1780   1.276       .  A
C671        N672   1.359       .  A
C671        N676   1.362       .  A
N672        C673   1.356       .  A
C673        N674   1.353       .  A
C673        C979   1.457       .  S
N674        C675   1.354       .  A
C675        N676   1.363       .  A
C675       C1002   1.461       .  S
C677        N678   1.363       .  A
C677        N682   1.360       .  A
C677        C704   1.476       .  S
N678        C679   1.365       .  A
C679        N680   1.357       .  A
C679        C868   1.471       .  S
N680        C681   1.354       .  A
C681        N682   1.355       .  A
C681        C844   1.459       .  S
Zn683       O687   1.952       .  S
Zn683       O688   2.000       .  S
Zn683       O692   2.011       .  S
Zn683       O699   2.013       .  S
Zn684       O689   2.061       .  S
Zn684       O691   2.024       .  S
Zn684       O695   2.058       .  S
Zn685       O687   1.953       .  S
Zn685       O690   2.024       .  S
Zn685       O696   2.007       .  S
Zn686       O687   1.946       .  S
Zn686       O694   2.001       .  S
Zn686       O698   2.026       .  S
O688        C700   1.272       .  A
O689        C701   1.278       .  A
O690        C702   1.272       .  A
O692        C702   1.273       .  A
O693        C701   1.272       .  A
O694        C703   1.272       .  A
O695        C704   1.279       .  A
O696        C703   1.272       .  A
O697        C704   1.274       .  A
O698        C705   1.272       .  A
O699        C705   1.271       .  A
C701        C706   1.475       .  S
C702        C960   1.469       .  S
C705        C773   1.462       .  S
C706        N707   1.360       .  A
C706        N711   1.363       .  A
N707        C708   1.354       .  A
C708        N709   1.353       .  A
C708       C1025   1.458       .  S
N709        C710   1.357       .  A
C710        N711   1.366       .  A
C710       C1054   1.471       .  S
C712        N713   1.359       .  A
C712        N717   1.363       .  A
C712        C738   1.469       .  S
N713        C714   1.356       .  A
C714        N715   1.354       .  A
C714       C1003   1.458       .  S
N715        C716   1.355       .  A
C716        N717   1.363       .  A
C716       C1078   1.463       .  S
Zn718       O722   1.943       .  S
Zn718       O723   2.004       .  S
Zn718       O727   1.990       .  S
Zn718       O734   2.007       .  S
Zn719       O722   1.958       .  S
Zn719       O724   2.017       .  S
Zn719       O726   2.030       .  S
Zn719       O730   2.016       .  S
Zn720       O722   1.977   1_545  S
Zn720       O725   2.051   1_545  S
Zn721       O722   1.957       .  S
Zn721       O729   2.016       .  S
Zn721       O732   2.011       .  S
Zn721       O733   2.038       .  S
O723        C735   1.271       .  A
O725        C737   1.276       .  A
O726        C735   1.274       .  A
O727        C737   1.271       .  A
O728        C736   1.277       .  A
O730        C739   1.273       .  A
O731        C738   1.277       .  A
O732        C739   1.273       .  A
O733        C740   1.274       .  A
O734        C740   1.271       .  A
C735        C795   1.469       .  S
C736        C741   1.470       .  S
C740        C981   1.473       .  S
C741        N742   1.363       .  A
C741        N746   1.360       .  A
N742        C743   1.362       .  A
C743        N744   1.354       .  A
C743        C896   1.464       .  S
N744        C745   1.356       .  A
C745        N746   1.358       .  A
C745        C819   1.468       .  S
C747        N748   1.358       .  A
C747        N752   1.360       .  A
C747        C871   1.468       .  S
N748        C749   1.357       .  A
C749        N750   1.358       .  A
C749        C818   1.466       .  S
N750        C751   1.356       .  A
C751        N752   1.359       .  A
C751        C772   1.460       .  S
Zn753       O757   1.961       .  S
Zn753       O758   2.009       .  S
Zn753       O762   2.016       .  S
Zn753       O769   2.007       .  S
Zn754      O1873   1.970   1_455  S
Zn754       O759   2.016       .  S
Zn754       O761   2.024       .  S
Zn754       O765   2.034       .  S
Zn755       O757   1.951       .  S
Zn755       O760   2.016       .  S
Zn755       O763   2.003       .  S
Zn755       O766   2.014       .  S
Zn756       O757   1.965       .  S
Zn756       O764   2.023       .  S
Zn756      O1883   2.015       .  S
Zn756       O768   2.026       .  S
O757      Zn1870   1.970       .  S
O758       C1886   1.271       .  A
O759       C1887   1.271   1_455  A
O760        C772   1.272       .  A
O761        C770   1.274       .  A
O762        C772   1.271       .  A
O763        C771   1.273       .  A
O764        C773   1.271       .  A
O765        C774   1.275       .  A
O766        C773   1.271       .  A
O767      Zn1872   2.015   1_455  S
O767        C774   1.272       .  A
O768        C775   1.275       .  A
O769        C775   1.272       .  A
C770        C797   1.469       .  S
C770       O1874   1.271   1_455  A
C771       C1701   1.457       .  S
C771       O1875   1.271       .  A
C774        C901   1.463       .  S
Zn776       O780   1.964       .  S
Zn776       O781   2.015       .  S
Zn776       O785   2.024       .  S
Zn776       O792   2.021       .  S
Zn777       O780   1.969       .  S
Zn777       O782   2.015       .  S
Zn777      O1900   2.036   1_455  S
Zn777       O788   2.028       .  S
Zn778       O780   1.948       .  S
Zn778       O783   2.007       .  S
Zn778       O786   1.995       .  S
Zn778       O789   2.009       .  S
Zn779       O780   1.958       .  S
Zn779       O787   2.009       .  S
Zn779       O790   2.003       .  S
Zn779       O791   2.004       .  S
O781       C1909   1.273   1_455  A
O782        C794   1.271       .  A
O783        C795   1.272       .  A
O784      Zn1893   2.036       .  S
O784        C793   1.275       .  A
O785        C795   1.272       .  A
O786        C794   1.271       .  A
O787        C796   1.270       .  A
O788        C797   1.274       .  A
O789        C796   1.271       .  A
O790        C797   1.270       .  A
O791        C798   1.272       .  A
O792        C798   1.274       .  A
C793       C1086   1.463       .  S
C793       O1897   1.273       .  A
C796        C847   1.456       .  S
Zn799       O803   1.961       .  S
Zn799       O804   2.002       .  S
Zn799       O808   2.004       .  S
Zn799       O815   2.007       .  S
Zn800       O803   1.958       .  S
Zn800       O805   2.009       .  S
Zn801       O803   1.960       .  S
Zn801       O806   2.017       .  S
Zn801       O809   2.030       .  S
Zn801       O812   2.005       .  S
Zn802       O813   2.039       .  S
Zn802       O814   2.044       .  S
O805        C817   1.270       .  A
O806        C818   1.273       .  A
O807        C816   1.272   1_565  A
O808        C818   1.271       .  A
O809        C817   1.272       .  A
O810        C819   1.276       .  A
O811        C820   1.270       .  A
O812        C819   1.274       .  A
O813        C820   1.278       .  A
O814        C821   1.275       .  A
C817        C923   1.462       .  S
C821        C841   1.465       .  S
Zn822       O826   1.960       .  S
Zn822       O827   2.006       .  S
Zn822       O831   2.015       .  S
Zn822       O838   2.012       .  S
Zn823       O826   1.951       .  S
Zn823       O828   1.997       .  S
Zn823       O830   2.003       .  S
Zn823       O834   2.011       .  S
Zn824       O826   1.971       .  S
Zn824       O829   2.034       .  S
Zn824       O832   2.019       .  S
Zn825       O826   1.965       .  S
Zn825       O833   2.015       .  S
Zn825       O836   2.027       .  S
Zn825       O837   2.022       .  S
O827        C839   1.271       .  A
O828        C840   1.272       .  A
O829        C841   1.274       .  A
O830        C839   1.270       .  A
O831        C841   1.271       .  A
O832        C840   1.272       .  A
O834        C843   1.271       .  A
O835        C842   1.275       .  A
O836        C843   1.272       .  A
O837        C844   1.274       .  A
O838        C844   1.272       .  A
C839        C849   1.453       .  S
C843       C1106   1.471       .  S
C845        N846   1.358       .  A
C845        N850   1.356       .  A
C845        C892   1.456       .  S
N846        C847   1.358       .  A
C847        N848   1.355       .  A
N848        C849   1.355       .  A
C849        N850   1.355       .  A
Zn851       O855   1.963       .  S
Zn851       O856   2.032       .  S
Zn851       O860   2.035       .  S
Zn851       O867   2.033       .  S
Zn852       O855   1.960       .  S
Zn852       O857   2.009       .  S
Zn852       O859   2.013       .  S
Zn852       O863   2.016       .  S
Zn853       O855   1.961       .  S
Zn853       O858   1.999       .  S
Zn853       O861   2.014       .  S
Zn853       O864   2.013       .  S
Zn854       O855   1.960       .  S
Zn854       O862   2.015       .  S
Zn854       O865   2.014       .  S
Zn854       O866   2.001       .  S
O856        C868   1.277       .  A
O857        C869   1.273       .  A
O858        C870   1.269       .  A
O859        C868   1.272       .  A
O860        C870   1.275       .  A
O861        C869   1.272       .  A
O862        C871   1.272       .  A
O863        C872   1.272       .  A
O864        C871   1.273       .  A
O865        C872   1.271       .  A
O866        C873   1.273       .  A
O867        C873   1.275       .  A
C870        C891   1.460       .  S
C873       C1084   1.468       .  S
Zn874       O878   1.970       .  S
Zn874       O879   2.025       .  S
Zn874       O883   2.016       .  S
Zn874       O890   2.031       .  S
Zn875       O878   1.961       .  S
Zn875       O880   2.013       .  S
Zn875       O882   2.011       .  S
Zn875       O886   2.010       .  S
Zn876       O878   1.949       .  S
Zn876       O881   1.998       .  S
Zn876       O884   2.007       .  S
Zn876       O887   2.002       .  S
Zn877       O878   1.966       .  S
Zn877       O885   2.035       .  S
Zn877       O888   2.028       .  S
Zn877       O889   2.022       .  S
O879        C891   1.273       .  A
O880        C892   1.271       .  A
O881        C893   1.271       .  A
O882        C891   1.271       .  A
O883        C893   1.271       .  A
O884        C892   1.270       .  A
O885        C894   1.273       .  A
O886        C895   1.272       .  A
O887        C894   1.271       .  A
O888        C895   1.275       .  A
O889        C896   1.274       .  A
O890        C896   1.275       .  A
C895        C899   1.459       .  S
C897        N898   1.360       .  A
C897        N902   1.363       .  A
C897        C924   1.470       .  S
N898        C899   1.357       .  A
C899        N900   1.354       .  A
N900        C901   1.354       .  A
C901        N902   1.363       .  A
Zn903       O907   1.958       .  S
Zn903       O908   2.010       .  S
Zn903       O912   2.029       .  S
Zn903       O919   2.014       .  S
Zn904       O907   1.975       .  S
Zn904       O909   2.047       .  S
Zn904       O911   2.057       .  S
Zn904       O915   2.054       .  S
Zn905       O907   1.945       .  S
Zn905       O910   2.005       .  S
Zn905       O913   1.983       .  S
Zn905       O916   2.006       .  S
Zn906       O907   1.954       .  S
Zn906       O914   2.033       .  S
Zn906       O917   2.020       .  S
Zn906       O918   2.013       .  S
O908        C920   1.272       .  A
O909        C921   1.276       .  A
O910        C922   1.272       .  A
O911        C920   1.278       .  A
O912        C922   1.273       .  A
O913        C921   1.269       .  A
O914        C923   1.273       .  A
O915        C924   1.277       .  A
O916        C923   1.269       .  A
O917        C924   1.274       .  A
O918        C925   1.273       .  A
O919        C925   1.273       .  A
C920        C926   1.469       .  S
C922       C1004   1.469       .  S
C926        N927   1.361       .  A
C926        N931   1.359       .  A
N927        C928   1.364       .  A
C928        N929   1.355       .  A
C928        C955   1.470       .  S
N929        C930   1.354       .  A
C930        N931   1.357       .  A
C930       C1081   1.457       .  S
C932        N933   1.359       .  A
C932        N937   1.357       .  A
C932       C1058   1.466       .  S
N933        C934   1.359       .  A
C934        N935   1.358       .  A
C934        C958   1.469       .  S
N935        C936   1.357       .  A
C936        N937   1.355       .  A
C936       C1006   1.456       .  S
Zn938       O942   1.954       .  S
Zn938      O2059   2.000       .  S
Zn938       O947   1.997       .  S
Zn938       O954   1.998       .  S
Zn939       O942   1.965       .  S
Zn939      O2060   2.034       .  S
Zn939      O2062   2.038       .  S
Zn939       O950   2.032   1_556  S
Zn940       O942   1.962       .  S
Zn940       O945   2.012       .  S
Zn940       O948   2.000       .  S
Zn940       O951   2.011       .  S
Zn941       O942   1.962       .  S
Zn941       O949   2.022       .  S
Zn941       O952   2.008       .  S
Zn941       O953   2.035       .  S
O943      Zn2054   2.000   1_455  S
O943        C955   1.270       .  A
O944      Zn2055   2.034   1_455  S
O944        C956   1.275       .  A
O945        C957   1.272       .  A
O946      Zn2055   2.038   1_455  S
O946        C955   1.277       .  A
O947        C957   1.271       .  A
O948       C2072   1.269       .  A
O949        C958   1.274       .  A
O950        C959   1.275       .  A
O951        C958   1.272       .  A
O952        C959   1.274   1_556  A
O953        C960   1.274       .  A
O954        C960   1.270       .  A
C956        C978   1.460   1_556  S
C956       O2064   1.269   1_455  A
C957       C1703   1.460       .  S
Zn961       O965   1.972       .  S
Zn961       O966   2.026       .  S
Zn961      O2086   2.037   1_455  S
Zn961       O977   2.018       .  S
Zn962       O965   1.960       .  S
Zn962       O967   2.004   1_554  S
Zn962       O969   2.006       .  S
Zn962       O973   2.010       .  S
Zn963       O965   1.968       .  S
Zn963       O968   2.018       .  S
Zn963       O971   2.028       .  S
Zn963       O974   2.035       .  S
Zn964       O965   1.949       .  S
Zn964       O972   2.009       .  S
Zn964       O975   2.012       .  S
Zn964       O976   1.998       .  S
O966        C978   1.273       .  A
O967        C979   1.272       .  A
O968       C2096   1.273   1_455  A
O969        C978   1.270       .  A
O970      Zn2077   2.037       .  S
O970        C980   1.275       .  A
O971        C979   1.275   1_554  A
O972        C981   1.272       .  A
O973        C982   1.270       .  A
O974        C981   1.273       .  A
O975        C982   1.271       .  A
O976        C983   1.272       .  A
O977        C983   1.272       .  A
C980       C1115   1.464       .  S
C980       O2084   1.273       .  A
C982       C1034   1.457       .  S
Zn984       O988   1.960       .  S
Zn984       O989   2.012       .  S
Zn984       O993   2.010   1_556  S
Zn984      O1000   2.016       .  S
Zn985       O990   2.028       .  S
Zn985       O992   2.026       .  S
Zn985       O996   2.015       .  S
Zn986       O988   1.966       .  S
Zn986       O991   2.027       .  S
Zn986       O997   2.035       .  S
Zn987       O988   1.944       .  S
Zn987       O995   1.995       .  S
Zn987       O998   1.985       .  S
Zn987       O999   2.001       .  S
O990       C1002   1.275       .  A
O991       C1003   1.275   1_556  A
O992       C1001   1.274       .  A
O993       C1003   1.273       .  A
O994       C1002   1.273       .  A
O995       C1004   1.270       .  A
O996       C1005   1.271       .  A
O997       C1004   1.273       .  A
O999       C1006   1.270       .  A
O1000      C1006   1.271       .  A
C1001      C1027   1.470   1_556  S
Zn1007     O1011   1.948       .  S
Zn1007     O1012   2.009       .  S
Zn1007     O1016   2.005       .  S
Zn1007     O1023   2.000       .  S
Zn1008     O1011   1.966       .  S
Zn1008     O1013   2.025       .  S
Zn1008     O1015   2.028       .  S
Zn1008     O1019   2.020       .  S
Zn1009     O1011   1.961       .  S
Zn1009     O1014   2.010       .  S
Zn1009     O1017   2.009   1_554  S
Zn1009     O1020   2.013       .  S
Zn1010     O1011   1.969       .  S
Zn1010     O1018   2.025       .  S
Zn1010     O1022   2.016       .  S
O1012      C1024   1.272       .  A
O1013      C1025   1.274   1_554  A
O1014      C1026   1.271       .  A
O1015      C1024   1.272       .  A
O1016      C1026   1.270       .  A
O1017      C1025   1.272       .  A
O1018      C1027   1.274       .  A
O1020      C1027   1.272       .  A
O1021      C1028   1.275       .  A
O1022      C1029   1.271       .  A
O1023      C1029   1.272       .  A
C1024      C1107   1.471       .  S
C1026      C1032   1.455       .  S
C1030      N1031   1.356       .  A
C1030      N1035   1.357       .  A
C1030      C1080   1.457       .  S
N1031      C1032   1.356       .  A
C1032      N1033   1.356       .  A
N1033      C1034   1.356       .  A
C1034      N1035   1.358       .  A
Zn1036     O1040   1.959       .  S
Zn1036     O1041   2.003       .  S
Zn1036     O1045   2.017       .  S
Zn1036     O1052   2.009       .  S
Zn1037     O1040   1.963       .  S
Zn1037     O1042   2.034       .  S
Zn1037     O1044   2.034   1_556  S
Zn1037     O1048   2.039       .  S
Zn1038     O1040   1.959       .  S
Zn1038     O1043   2.013       .  S
Zn1038     O1046   2.009       .  S
Zn1038     O1049   2.004       .  S
Zn1039     O1040   1.962       .  S
Zn1039     O1047   2.011       .  S
Zn1039     O1050   2.004       .  S
Zn1039     O1051   2.015       .  S
O1041      C1053   1.273   1_556  A
O1042      C1054   1.277       .  A
O1043      C1055   1.271       .  A
O1044      C1053   1.275       .  A
O1045      C1055   1.271       .  A
O1046      C1054   1.271       .  A
O1047      C1056   1.272       .  A
O1048      C1057   1.275       .  A
O1049      C1056   1.273       .  A
O1050      C1057   1.270       .  A
O1051      C1058   1.273       .  A
O1052      C1058   1.272       .  A
C1053      C1113   1.469       .  S
C1057      C1079   1.463   1_556  S
Zn1059     O1063   1.965       .  S
Zn1059     O1064   2.025       .  S
Zn1059     O1068   2.015       .  S
Zn1059     O1075   2.022       .  S
Zn1060     O1063   1.951       .  S
Zn1060     O1065   1.995       .  S
Zn1060     O1067   2.005       .  S
Zn1060     O1071   2.011       .  S
Zn1061     O1063   1.970       .  S
Zn1061     O1066   2.036       .  S
Zn1061     O1069   2.017       .  S
Zn1061     O1072   2.031       .  S
Zn1062     O1063   1.960       .  S
Zn1062     O1070   2.013       .  S
Zn1062     O1073   2.014       .  S
Zn1062     O1074   2.008   1_554  S
O1064      C1076   1.272       .  A
O1065      C1077   1.271       .  A
O1066      C1078   1.275       .  A
O1067      C1076   1.271       .  A
O1068      C1078   1.273       .  A
O1069      C1077   1.272       .  A
O1070      C1079   1.271       .  A
O1071      C1080   1.271       .  A
O1072      C1079   1.274       .  A
O1073      C1080   1.271       .  A
O1074      C1081   1.272       .  A
O1075      C1081   1.274   1_554  A
C1082      N1083   1.361       .  A
C1082      N1087   1.363       .  A
C1082      C1109   1.470       .  S
N1083      C1084   1.359       .  A
C1084      N1085   1.355       .  A
N1085      C1086   1.353       .  A
C1086      N1087   1.362       .  A
Zn1088     O1092   1.956       .  S
Zn1088     O1093   2.014       .  S
Zn1088     O1097   2.033       .  S
Zn1088     O1104   2.022       .  S
Zn1089     O1092   1.953       .  S
Zn1089     O1094   2.028       .  S
Zn1089     O1096   2.010       .  S
Zn1089     O1100   2.018       .  S
Zn1090     O1092   1.942       .  S
Zn1090     O1095   2.007       .  S
Zn1090     O1098   2.009       .  S
Zn1090     O1101   1.986       .  S
Zn1091     O1092   1.975       .  S
Zn1091     O1099   2.042       .  S
Zn1091     O1102   2.052       .  S
Zn1091     O1103   2.050       .  S
O1093      C1105   1.274       .  A
O1094      C1106   1.273       .  A
O1095      C1107   1.271       .  A
O1096      C1105   1.273       .  A
O1097      C1107   1.274       .  A
O1098      C1106   1.272       .  A
O1099      C1108   1.275       .  A
O1100      C1109   1.273       .  A
O1101      C1108   1.271       .  A
O1102      C1109   1.277       .  A
O1103      C1110   1.277       .  A
O1104      C1110   1.274       .  A
C1110      C1111   1.470       .  S
C1111      N1112   1.361       .  A
C1111      N1116   1.362       .  A
N1112      C1113   1.359       .  A
C1113      N1114   1.356       .  A
N1114      C1115   1.354       .  A
C1115      N1116   1.362       .  A
C1117      N1118   1.355       .  A
C1117      N1122   1.353       .  A
C1117      C1374   1.458       .  S
N1118      C1119   1.358       .  A
C1119      N1120   1.359       .  A
C1119      C1819   1.462       .  S
N1120      C1121   1.356       .  A
C1121      N1122   1.353       .  A
C1121      C1563   1.452       .  S
C1123      N1124   1.358       .  A
C1123      N1128   1.351       .  A
C1123      C1587   1.456       .  S
N1124      C1125   1.361       .  A
C1125      N1126   1.361       .  A
C1125      C1295   1.461       .  S
N1126      C1127   1.358       .  A
C1127      N1128   1.351       .  A
C1127      C1398   1.456       .  S
C1129      N1130   1.352       .  A
C1129      N1134   1.357       .  A
C1129      C1451   1.456       .  S
N1130      C1131   1.352       .  A
C1131      N1132   1.356       .  A
C1131      C1635   1.455       .  S
N1132      C1133   1.359       .  A
C1133      N1134   1.360       .  A
C1133      C1666   1.456       .  S
C1135      N1136   1.353       .  A
C1135      N1140   1.358       .  A
C1135      C1614   1.461       .  S
N1136      C1137   1.353       .  A
C1137      N1138   1.359       .  A
C1137      C1427   1.463       .  S
N1138      C1139   1.360       .  A
C1139      N1140   1.358       .  A
C1139      C1479   1.458       .  S
C1141      N1142   1.360       .  A
C1141      N1146   1.358       .  A
N1142      C1143   1.358       .  A
C1143      N1144   1.353       .  A
N1144      C1145   1.353       .  A
C1145      N1146   1.357       .  A
C1147      N1148   1.361       .  A
C1147      N1152   1.360       .  A
C1147      C1188   1.460       .  S
N1148      C1149   1.358       .  A
C1149      N1150   1.351       .  A
C1149      C1541   1.456       .  S
N1150      C1151   1.351       .  A
C1151      N1152   1.357       .  A
C1151      C1352   1.454       .  S
C1153      N1154   1.356       .  A
C1153      N1716   1.357       .  A
C1153      C1297   1.455       .  S
C1155      N1156   1.356       .  A
C1155      C1663   1.454       .  S
C1157      N1158   1.356       .  A
C1157      C1191   1.455       .  S
N1158      C1711   1.357   1_545  A
C1159      N1164   1.357       .  A
C1159      C1816   1.465       .  S
N1160      C1161   1.356       .  A
C1161      N1720   1.355   1_545  A
C1161      C1483   1.455       .  S
N1162      C1719   1.355       .  A
N1162      C1163   1.355       .  A
C1165      N1166   1.362       .  A
C1165      N1170   1.362       .  A
C1165      C1189   1.471       .  S
N1166      C1167   1.360       .  A
C1167      N1168   1.355       .  A
C1167      C1517   1.469       .  S
N1168      C1169   1.353       .  A
C1169      N1170   1.362       .  A
C1169      C1586   1.462       .  S
Zn1171     O1175   1.943       .  S
Zn1171     O1176   1.993       .  S
Zn1171     O1180   2.006       .  S
Zn1171     O1187   2.011       .  S
Zn1172     O1175   1.975       .  S
Zn1172     O1179   2.046       .  S
Zn1173     O1175   1.955       .  S
Zn1173     O1178   2.026       .  S
Zn1173     O1181   2.019       .  S
Zn1173     O1184   2.016       .  S
Zn1174     O1175   1.956       .  S
Zn1174     O1182   2.010       .  S
Zn1174     O1185   2.011       .  S
Zn1174     O1186   2.030       .  S
O1176      C1188   1.272       .  A
O1177      C1189   1.277       .  A
O1178      C1190   1.273       .  A
O1179      C1188   1.276       .  A
O1180      C1190   1.272       .  A
O1182      C1191   1.273       .  A
O1183      C1192   1.277       .  A
O1184      C1191   1.273       .  A
O1186      C1193   1.273       .  A
O1187      C1193   1.272       .  A
C1190      C1634   1.469       .  S
C1192      C1194   1.467       .  S
C1193      C1452   1.471       .  S
C1194      N1195   1.359       .  A
C1194      N1199   1.362       .  A
N1195      C1196   1.356       .  A
C1196      N1197   1.354       .  A
C1196      C1333   1.457       .  S
N1197      C1198   1.355       .  A
C1198      N1199   1.362       .  A
C1198      C1400   1.461       .  S
C1200      N1201   1.362       .  A
C1200      N1205   1.358       .  A
C1200      C1225   1.468       .  S
N1201      C1202   1.364       .  A
C1202      N1203   1.355       .  A
C1202      C1378   1.470       .  S
N1203      C1204   1.353       .  A
C1204      N1205   1.356       .  A
C1204      C1356   1.455       .  S
Zn1206     O1211   2.056       .  S
Zn1206     O1215   2.053       .  S
Zn1206     O1222   2.047       .  S
Zn1207     O1210   1.947   1_655  S
Zn1207     O1212   2.006   1_655  S
Zn1207     O1218   2.018       .  S
Zn1208     O1210   1.946   1_655  S
Zn1208     O1216   2.007   1_655  S
Zn1208     O1219   2.019       .  S
Zn1209     O1210   1.947   1_655  S
Zn1209     O1217   2.009       .  S
Zn1209     O1220   2.013       .  S
Zn1209     O1221   1.985       .  S
O1211      C1223   1.278       .  A
O1212      C1224   1.271       .  A
O1213      C1225   1.273       .  A
O1214      C1223   1.273       .  A
O1215      C1225   1.277       .  A
O1216      C1224   1.272       .  A
O1217      C1226   1.270       .  A
O1218      C1227   1.271       .  A
O1219      C1226   1.272       .  A
O1220      C1227   1.271       .  A
O1221      C1228   1.270   1_655  A
C1223      C1229   1.468       .  S
C1226      C1430   1.459       .  S
C1227      C1613   1.459       .  S
C1229      N1230   1.359       .  A
C1229      N1234   1.362       .  A
N1230      C1231   1.356       .  A
C1231      N1232   1.353       .  A
C1231      C1537   1.457       .  S
N1232      C1233   1.354       .  A
C1233      N1234   1.363       .  A
C1233      C1560   1.461       .  S
C1235      N1236   1.363       .  A
C1235      N1240   1.360       .  A
C1235      C1262   1.476       .  S
N1236      C1237   1.365       .  A
C1237      N1238   1.357       .  A
C1237      C1426   1.471       .  S
N1238      C1239   1.354       .  A
C1239      N1240   1.355       .  A
C1239      C1402   1.459       .  S
Zn1241     O1245   1.952   1_545  S
Zn1241     O1246   2.000       .  S
Zn1241     O1250   2.011       .  S
Zn1241     O1257   2.013       .  S
Zn1242     O1803   1.975       .  S
Zn1242     O1247   2.061       .  S
Zn1242     O1249   2.024       .  S
Zn1242     O1253   2.058       .  S
Zn1243     O1245   1.953       .  S
Zn1243     O1248   2.024   1_565  S
Zn1243     O1809   1.995       .  S
Zn1243     O1254   2.007       .  S
Zn1244     O1245   1.946       .  S
Zn1244     O1252   2.001       .  S
Zn1244     O1813   2.006       .  S
Zn1244     O1256   2.026   1_565  S
O1245     Zn1800   1.975       .  S
O1246      C1258   1.272   1_545  A
O1247      C1259   1.278       .  A
O1248      C1260   1.272       .  A
O1249      C1816   1.275       .  A
O1250      C1260   1.273       .  A
O1251     Zn1801   1.995       .  S
O1251      C1259   1.272       .  A
O1252      C1261   1.272       .  A
O1253      C1262   1.279       .  A
O1254      C1261   1.272       .  A
O1255     Zn1802   2.006       .  S
O1255      C1262   1.274       .  A
O1256      C1263   1.272       .  A
O1257      C1263   1.271       .  A
C1258      C1717   1.465       .  S
C1258      O1807   1.275       .  A
C1259      C1264   1.475       .  S
C1260      C1518   1.469       .  S
C1261      C1677   1.462       .  S
C1263      C1331   1.462       .  S
C1264      N1265   1.360       .  A
C1264      N1269   1.363       .  A
N1265      C1266   1.354       .  A
C1266      N1267   1.353       .  A
C1266      C1583   1.458       .  S
N1267      C1268   1.357       .  A
C1268      N1269   1.366       .  A
C1268      C1612   1.471       .  S
C1270      N1271   1.359       .  A
C1270      N1275   1.363       .  A
C1270      C1296   1.469       .  S
N1271      C1272   1.356       .  A
C1272      N1273   1.354       .  A
C1272      C1561   1.458       .  S
N1273      C1274   1.355       .  A
C1274      N1275   1.363       .  A
C1274      C1636   1.463       .  S
Zn1276     O1280   1.943       .  S
Zn1276     O1281   2.004       .  S
Zn1276     O1285   1.991       .  S
Zn1276     O1292   2.007       .  S
Zn1277     O1280   1.958       .  S
Zn1277     O1282   2.017       .  S
Zn1277     O1284   2.030       .  S
Zn1277     O1288   2.016       .  S
Zn1278     O1280   1.977       .  S
Zn1278     O1283   2.051       .  S
Zn1278     O1844   2.053       .  S
Zn1278     O1847   2.051       .  S
Zn1279     O1280   1.957       .  S
Zn1279     O1287   2.016       .  S
Zn1279     O1290   2.011       .  S
Zn1279     O1291   2.038       .  S
O1281      C1293   1.271       .  A
O1282      C1852   1.273       .  A
O1283      C1295   1.276       .  A
O1284      C1293   1.274       .  A
O1285      C1295   1.271       .  A
O1286     Zn1836   2.053       .  S
O1286      C1294   1.277       .  A
O1287      C1854   1.273       .  A
O1288      C1297   1.273       .  A
O1289     Zn1836   2.051       .  S
O1289      C1296   1.277       .  A
O1290      C1297   1.273       .  A
O1291      C1298   1.274       .  A
O1292      C1298   1.271       .  A
C1293      C1353   1.469       .  S
C1294      C1299   1.470       .  S
C1294      O1840   1.273   1_545  A
C1296      O1845   1.273   1_545  A
C1298      C1539   1.473       .  S
C1299      N1300   1.363       .  A
C1299      N1304   1.360       .  A
N1300      C1301   1.362       .  A
C1301      N1302   1.354       .  A
C1301      C1454   1.464       .  S
N1302      C1303   1.356       .  A
C1303      N1304   1.358       .  A
C1303      C1377   1.468       .  S
C1305      N1306   1.358       .  A
C1305      N1310   1.360       .  A
C1305      C1429   1.468       .  S
N1306      C1307   1.357       .  A
C1307      N1308   1.358       .  A
C1307      C1376   1.466       .  S
N1308      C1309   1.356       .  A
C1309      N1310   1.359       .  A
C1309      C1330   1.460       .  S
Zn1311     O1315   1.961       .  S
Zn1311     O1316   2.009       .  S
Zn1311     O1320   2.016       .  S
Zn1311     O1327   2.007       .  S
Zn1312     O1317   2.016       .  S
Zn1312     O1319   2.024       .  S
Zn1312     O1323   2.034       .  S
Zn1313     O1315   1.951       .  S
Zn1313     O1318   2.016       .  S
Zn1313     O1321   2.003       .  S
Zn1313     O1324   2.014       .  S
Zn1314     O1315   1.965       .  S
Zn1314     O1322   2.023       .  S
Zn1314     O1326   2.026       .  S
O1318      C1330   1.272       .  A
O1319      C1328   1.274       .  A
O1320      C1330   1.271       .  A
O1321      C1329   1.273       .  A
O1322      C1331   1.271       .  A
O1323      C1332   1.275       .  A
O1324      C1331   1.271       .  A
O1325      C1332   1.272       .  A
O1326      C1333   1.275       .  A
O1327      C1333   1.272       .  A
C1328      C1355   1.469       .  S
C1332      C1459   1.463       .  S
Zn1334     O1338   1.964       .  S
Zn1334     O1339   2.015       .  S
Zn1334     O1343   2.024       .  S
Zn1334     O1350   2.021       .  S
Zn1335     O1338   1.969       .  S
Zn1335     O1340   2.015       .  S
Zn1335     O1346   2.028       .  S
Zn1336     O1338   1.948       .  S
Zn1336     O1341   2.007       .  S
Zn1336     O1344   1.995       .  S
Zn1336     O1347   2.009       .  S
Zn1337     O1338   1.958       .  S
Zn1337     O1345   2.009       .  S
Zn1337     O1348   2.003       .  S
Zn1337     O1349   2.004       .  S
O1340      C1352   1.271       .  A
O1341      C1353   1.272       .  A
O1342      C1351   1.275       .  A
O1343      C1353   1.272       .  A
O1344      C1352   1.271       .  A
O1345      C1354   1.270       .  A
O1346      C1355   1.274       .  A
O1347      C1354   1.271       .  A
O1348      C1355   1.270       .  A
O1349      C1356   1.272       .  A
O1350      C1356   1.274       .  A
C1351      C1644   1.463       .  S
C1354      C1405   1.456       .  S
Zn1357     O1361   1.961       .  S
Zn1357     O1362   2.002       .  S
Zn1357     O1366   2.004       .  S
Zn1357     O1373   2.007       .  S
Zn1358     O1361   1.958       .  S
Zn1358     O1363   2.009       .  S
Zn1358     O1923   1.999   1_545  S
Zn1358     O1927   2.001   1_545  S
Zn1359     O1361   1.960       .  S
Zn1359     O1364   2.017       .  S
Zn1359     O1367   2.030       .  S
Zn1359     O1370   2.005       .  S
Zn1360     O1919   1.963       .  S
Zn1360     O1926   2.032       .  S
Zn1360     O1371   2.039       .  S
Zn1360     O1372   2.044       .  S
O1361     Zn1918   1.963   1_545  S
O1362      C1932   1.271       .  A
O1363      C1375   1.270       .  A
O1364      C1376   1.273       .  A
O1365     Zn1916   1.999       .  S
O1365      C1374   1.272       .  A
O1366      C1376   1.271       .  A
O1367      C1375   1.272       .  A
O1368     Zn1918   2.032   1_545  S
O1368      C1377   1.276       .  A
O1369     Zn1916   2.001       .  S
O1369      C1378   1.270       .  A
O1370      C1377   1.274       .  A
O1371      C1378   1.278       .  A
O1372      C1379   1.275       .  A
O1373      C1937   1.270   1_545  A
C1374      O1920   1.271       .  A
C1375      C1481   1.462       .  S
C1379      C1399   1.465       .  S
C1379      O1931   1.270       .  A
Zn1380     O1384   1.960       .  S
Zn1380     O1385   2.006       .  S
Zn1380     O1389   2.015       .  S
Zn1380     O1396   2.012       .  S
Zn1381     O1384   1.951       .  S
Zn1381     O1386   1.997       .  S
Zn1381     O1388   2.003       .  S
Zn1381     O1392   2.011       .  S
Zn1382     O1384   1.971       .  S
Zn1382     O1387   2.034       .  S
Zn1382     O1390   2.019       .  S
Zn1382     O1951   2.032       .  S
Zn1383     O1384   1.965       .  S
Zn1383     O1391   2.015       .  S
Zn1383     O1394   2.027       .  S
Zn1383     O1395   2.022       .  S
O1385      C1397   1.271       .  A
O1386      C1398   1.272       .  A
O1387      C1399   1.274       .  A
O1388      C1397   1.270       .  A
O1389      C1399   1.271       .  A
O1390      C1398   1.272       .  A
O1391      C1958   1.273       .  A
O1392      C1401   1.271       .  A
O1393     Zn1940   2.032   1_545  S
O1393      C1400   1.275       .  A
O1394      C1401   1.272       .  A
O1395      C1402   1.274       .  A
O1396      C1402   1.272       .  A
C1397      C1407   1.453       .  S
C1400      O1949   1.273   1_545  A
C1401      C1664   1.471       .  S
C1403      N1404   1.358       .  A
C1403      N1408   1.356       .  A
C1403      C1450   1.456       .  S
N1404      C1405   1.358       .  A
C1405      N1406   1.355       .  A
N1406      C1407   1.355       .  A
C1407      N1408   1.355       .  A
Zn1409     O1413   1.963       .  S
Zn1409     O1414   2.032       .  S
Zn1409     O1418   2.035       .  S
Zn1409     O1425   2.033       .  S
Zn1410     O1413   1.960       .  S
Zn1410     O1415   2.009       .  S
Zn1410     O1417   2.013       .  S
Zn1410     O1421   2.016       .  S
Zn1411     O1413   1.961       .  S
Zn1411     O1416   1.999       .  S
Zn1411     O1419   2.014       .  S
Zn1411     O1422   2.013       .  S
Zn1412     O1413   1.960       .  S
Zn1412     O1420   2.015       .  S
Zn1412     O1423   2.014       .  S
Zn1412     O1424   2.001       .  S
O1414      C1426   1.277       .  A
O1415      C1427   1.273       .  A
O1416      C1428   1.269       .  A
O1417      C1426   1.272       .  A
O1418      C1428   1.275       .  A
O1419      C1427   1.272       .  A
O1420      C1429   1.272       .  A
O1421      C1430   1.272       .  A
O1422      C1429   1.273       .  A
O1423      C1430   1.271       .  A
O1424      C1431   1.273       .  A
O1425      C1431   1.275       .  A
C1428      C1449   1.460       .  S
C1431      C1642   1.468       .  S
Zn1432     O1436   1.970       .  S
Zn1432     O1437   2.025       .  S
Zn1432     O1441   2.016       .  S
Zn1432     O1448   2.031       .  S
Zn1433     O1436   1.961       .  S
Zn1433     O1438   2.013       .  S
Zn1433     O1440   2.011       .  S
Zn1433     O1444   2.010       .  S
Zn1434     O1436   1.949       .  S
Zn1434     O1439   1.998       .  S
Zn1434     O1442   2.007       .  S
Zn1434     O1445   2.002       .  S
Zn1435     O1436   1.966       .  S
Zn1435     O1443   2.035       .  S
Zn1435     O1446   2.028       .  S
Zn1435     O1447   2.022       .  S
O1437      C1449   1.273       .  A
O1438      C1450   1.271       .  A
O1439      C1451   1.271       .  A
O1440      C1449   1.271       .  A
O1441      C1451   1.271       .  A
O1442      C1450   1.270       .  A
O1443      C1452   1.273       .  A
O1444      C1453   1.272       .  A
O1445      C1452   1.271       .  A
O1446      C1453   1.275       .  A
O1447      C1454   1.274       .  A
O1448      C1454   1.275       .  A
C1453      C1457   1.459       .  S
C1455      N1456   1.360       .  A
C1455      N1460   1.363       .  A
C1455      C1482   1.470       .  S
N1456      C1457   1.357       .  A
C1457      N1458   1.354       .  A
N1458      C1459   1.354       .  A
C1459      N1460   1.363       .  A
Zn1461     O1465   1.958       .  S
Zn1461     O1466   2.010       .  S
Zn1461     O1470   2.029       .  S
Zn1461     O1477   2.014       .  S
Zn1462     O1465   1.975       .  S
Zn1462     O1467   2.047       .  S
Zn1462     O1469   2.057       .  S
Zn1462     O1473   2.054       .  S
Zn1463     O1465   1.945       .  S
Zn1463     O1468   2.005       .  S
Zn1463     O1471   1.983       .  S
Zn1463     O1474   2.006       .  S
Zn1464     O1465   1.954       .  S
Zn1464     O1472   2.033       .  S
Zn1464     O1475   2.020       .  S
Zn1464     O1476   2.013       .  S
O1466      C1478   1.272       .  A
O1467      C1479   1.276       .  A
O1468      C1480   1.272       .  A
O1469      C1478   1.278       .  A
O1470      C1480   1.273       .  A
O1471      C1479   1.269       .  A
O1472      C1481   1.273       .  A
O1473      C1482   1.277       .  A
O1474      C1481   1.269       .  A
O1475      C1482   1.274       .  A
O1476      C1483   1.273       .  A
O1477      C1483   1.273       .  A
C1478      C1484   1.469       .  S
C1480      C1562   1.469       .  S
C1484      N1485   1.361       .  A
C1484      N1489   1.359       .  A
N1485      C1486   1.364       .  A
C1486      N1487   1.355       .  A
C1486      C1513   1.470       .  S
N1487      C1488   1.354       .  A
C1488      N1489   1.357       .  A
C1488      C1639   1.457       .  S
C1490      N1491   1.359       .  A
C1490      N1495   1.357       .  A
C1490      C1616   1.466       .  S
N1491      C1492   1.359       .  A
C1492      N1493   1.358       .  A
C1492      C1516   1.469       .  S
N1493      C1494   1.357       .  A
C1494      N1495   1.355       .  A
C1494      C1564   1.456       .  S
Zn1496     O1500   1.954       .  S
Zn1496     O1505   1.997       .  S
Zn1496     O1512   1.998       .  S
Zn1497     O1500   1.965       .  S
Zn1497     O1508   2.032   1_556  S
Zn1498     O1500   1.962       .  S
Zn1498     O1503   2.012       .  S
Zn1498     O1506   2.000       .  S
Zn1498     O1509   2.011       .  S
Zn1499     O1500   1.962       .  S
Zn1499     O1507   2.022       .  S
Zn1499     O1510   2.008       .  S
Zn1499     O1511   2.035       .  S
O1501      C1513   1.270       .  A
O1502      C1514   1.274       .  A
O1503      C1515   1.272       .  A
O1504      C1513   1.277       .  A
O1505      C1515   1.271       .  A
O1507      C1516   1.274       .  A
O1508      C1517   1.275       .  A
O1509      C1516   1.272       .  A
O1510      C1517   1.274   1_556  A
O1511      C1518   1.274       .  A
O1512      C1518   1.270       .  A
C1514      C1536   1.460   1_556  S
Zn1519     O1523   1.972       .  S
Zn1519     O1524   2.026       .  S
Zn1519     O1535   2.018       .  S
Zn1520     O1523   1.960       .  S
Zn1520     O1525   2.004   1_554  S
Zn1520     O1527   2.006       .  S
Zn1520     O1531   2.010       .  S
Zn1521     O1523   1.968       .  S
Zn1521     O1526   2.018       .  S
Zn1521     O1529   2.028       .  S
Zn1521     O1532   2.035       .  S
Zn1522     O1523   1.949       .  S
Zn1522     O1530   2.009       .  S
Zn1522     O1533   2.012       .  S
Zn1522     O1534   1.998       .  S
O1524      C1536   1.273       .  A
O1525      C1537   1.272       .  A
O1527      C1536   1.270       .  A
O1528      C1538   1.275       .  A
O1529      C1537   1.275   1_554  A
O1530      C1539   1.272       .  A
O1531      C1540   1.270       .  A
O1532      C1539   1.273       .  A
O1533      C1540   1.271       .  A
O1534      C1541   1.272       .  A
O1535      C1541   1.272       .  A
C1538      C1673   1.464       .  S
C1540      C1592   1.457       .  S
Zn1542     O1546   1.960       .  S
Zn1542     O1547   2.012       .  S
Zn1542     O1551   2.010   1_556  S
Zn1542     O1558   2.016       .  S
Zn1543     O2104   1.969       .  S
Zn1543     O1548   2.028       .  S
Zn1543     O1550   2.026       .  S
Zn1543     O1554   2.015       .  S
Zn1544     O1546   1.966       .  S
Zn1544     O1549   2.027       .  S
Zn1544     O2110   2.018   1_545  S
Zn1544     O1555   2.035       .  S
Zn1545     O1546   1.944       .  S
Zn1545     O1553   1.995       .  S
Zn1545     O1556   1.985       .  S
Zn1545     O1557   2.001       .  S
O1546     Zn2101   1.969   1_545  S
O1547      C2117   1.272   1_545  A
O1548      C1560   1.275       .  A
O1549      C1561   1.275   1_556  A
O1550      C1559   1.274       .  A
O1551      C1561   1.273       .  A
O1552     Zn2102   2.018       .  S
O1552      C1560   1.273       .  A
O1553      C1562   1.270       .  A
O1554      C1563   1.271       .  A
O1555      C1562   1.273       .  A
O1556      C2121   1.270   1_545  A
O1557      C1564   1.270       .  A
O1558      C1564   1.271       .  A
C1559      C1585   1.470   1_556  S
C1559      O2105   1.272       .  A
C1563      O2114   1.270       .  A
Zn1565     O1569   1.948       .  S
Zn1565     O1570   2.009       .  S
Zn1565     O1574   2.005       .  S
Zn1565     O1581   2.000       .  S
Zn1566     O1569   1.966       .  S
Zn1566     O1571   2.025       .  S
Zn1566     O1573   2.028       .  S
Zn1566     O1577   2.020       .  S
Zn1567     O1569   1.961       .  S
Zn1567     O1572   2.010       .  S
Zn1567     O1575   2.009   1_554  S
Zn1567     O1578   2.013       .  S
Zn1568     O1569   1.969       .  S
Zn1568     O1576   2.025       .  S
Zn1568     O2137   2.031       .  S
Zn1568     O1580   2.016       .  S
O1570      C1582   1.272       .  A
O1571      C1583   1.274   1_554  A
O1572      C1584   1.271       .  A
O1573      C1582   1.272       .  A
O1574      C1584   1.270       .  A
O1575      C1583   1.272       .  A
O1576      C1585   1.274       .  A
O1577      C2144   1.274       .  A
O1578      C1585   1.272       .  A
O1579     Zn2126   2.031   1_545  S
O1579      C1586   1.275       .  A
O1580      C1587   1.271       .  A
O1581      C1587   1.272       .  A
C1582      C1665   1.471       .  S
C1584      C1590   1.455       .  S
C1586      O2135   1.274   1_545  A
C1588      N1589   1.356       .  A
C1588      N1593   1.357       .  A
C1588      C1638   1.457       .  S
N1589      C1590   1.356       .  A
C1590      N1591   1.356       .  A
N1591      C1592   1.356       .  A
C1592      N1593   1.358       .  A
Zn1594     O1598   1.959       .  S
Zn1594     O1599   2.003       .  S
Zn1594     O1603   2.017       .  S
Zn1594     O1610   2.009       .  S
Zn1595     O1598   1.963       .  S
Zn1595     O1600   2.034       .  S
Zn1595     O1602   2.034   1_556  S
Zn1595     O1606   2.039       .  S
Zn1596     O1598   1.959       .  S
Zn1596     O1601   2.013       .  S
Zn1596     O1604   2.009       .  S
Zn1596     O1607   2.004       .  S
Zn1597     O1598   1.962       .  S
Zn1597     O1605   2.011       .  S
Zn1597     O1608   2.004       .  S
Zn1597     O1609   2.015       .  S
O1599      C1611   1.273   1_556  A
O1600      C1612   1.277       .  A
O1601      C1613   1.271       .  A
O1602      C1611   1.275       .  A
O1603      C1613   1.271       .  A
O1604      C1612   1.271       .  A
O1605      C1614   1.272       .  A
O1606      C1615   1.275       .  A
O1607      C1614   1.273       .  A
O1608      C1615   1.270       .  A
O1609      C1616   1.273       .  A
O1610      C1616   1.272       .  A
C1611      C1671   1.469       .  S
C1615      C1637   1.463   1_556  S
Zn1617     O1621   1.965       .  S
Zn1617     O1622   2.025       .  S
Zn1617     O1626   2.015       .  S
Zn1617     O1633   2.022       .  S
Zn1618     O1621   1.951       .  S
Zn1618     O1623   1.995       .  S
Zn1618     O1625   2.005       .  S
Zn1618     O1629   2.011       .  S
Zn1619     O1621   1.970       .  S
Zn1619     O1624   2.036       .  S
Zn1619     O1627   2.017       .  S
Zn1619     O1630   2.031       .  S
Zn1620     O1621   1.960       .  S
Zn1620     O1628   2.013       .  S
Zn1620     O1631   2.014       .  S
Zn1620     O1632   2.008   1_554  S
O1622      C1634   1.272       .  A
O1623      C1635   1.271       .  A
O1624      C1636   1.275       .  A
O1625      C1634   1.271       .  A
O1626      C1636   1.273       .  A
O1627      C1635   1.272       .  A
O1628      C1637   1.271       .  A
O1629      C1638   1.271       .  A
O1630      C1637   1.274       .  A
O1631      C1638   1.271       .  A
O1632      C1639   1.272       .  A
O1633      C1639   1.274   1_554  A
C1640      N1641   1.361       .  A
C1640      N1645   1.363       .  A
C1640      C1667   1.470       .  S
N1641      C1642   1.359       .  A
C1642      N1643   1.355       .  A
N1643      C1644   1.353       .  A
C1644      N1645   1.362       .  A
Zn1646     O1650   1.956       .  S
Zn1646     O1651   2.014       .  S
Zn1646     O1655   2.033       .  S
Zn1646     O1662   2.022       .  S
Zn1647     O1650   1.953       .  S
Zn1647     O1652   2.028       .  S
Zn1647     O1654   2.010       .  S
Zn1647     O1658   2.018       .  S
Zn1648     O1650   1.942       .  S
Zn1648     O1653   2.007       .  S
Zn1648     O1656   2.009       .  S
Zn1648     O1659   1.986       .  S
Zn1649     O1650   1.975       .  S
Zn1649     O1657   2.042       .  S
Zn1649     O1660   2.052       .  S
Zn1649     O1661   2.050       .  S
O1651      C1663   1.274       .  A
O1652      C1664   1.273       .  A
O1653      C1665   1.271       .  A
O1654      C1663   1.273       .  A
O1655      C1665   1.274       .  A
O1656      C1664   1.272       .  A
O1657      C1666   1.275       .  A
O1658      C1667   1.273       .  A
O1659      C1666   1.271       .  A
O1660      C1667   1.277       .  A
O1661      C1668   1.277       .  A
O1662      C1668   1.274       .  A
C1668      C1669   1.470       .  S
C1669      N1670   1.361       .  A
C1669      N1674   1.362       .  A
N1670      C1671   1.359       .  A
C1671      N1672   1.356       .  A
N1672      C1673   1.354       .  A
C1673      N1674   1.362       .  A
C1675      N1676   1.355       .  A
C1675      N1680   1.353       .  A
C1675      C1932   1.458   1_565  S
N1676      C1677   1.358       .  A
C1677      N1678   1.359       .  A
N1678      C1679   1.356       .  A
C1679      N1680   1.353       .  A
C1679      C2121   1.452       .  S
C1681      N1682   1.358       .  A
C1681      N1686   1.351       .  A
C1681      C2145   1.456       .  S
N1682      C1683   1.361       .  A
C1683      N1684   1.361       .  A
C1683      C1853   1.461       .  S
N1684      C1685   1.358       .  A
C1685      N1686   1.351       .  A
C1685      C1956   1.456       .  S
C1687      N1688   1.352       .  A
C1687      N1692   1.357       .  A
C1687      C2009   1.456       .  S
N1688      C1689   1.352       .  A
C1689      N1690   1.356       .  A
C1689      C2193   1.455       .  S
N1690      C1691   1.359       .  A
C1691      N1692   1.360       .  A
C1691      C2224   1.456       .  S
C1693      N1694   1.353       .  A
C1693      N1698   1.358       .  A
C1693      C2172   1.461       .  S
N1694      C1695   1.353       .  A
C1695      N1696   1.359       .  A
C1695      C1985   1.463       .  S
N1696      C1697   1.360       .  A
C1697      N1698   1.358       .  A
C1697      C2037   1.458       .  S
C1699      N1700   1.360       .  A
C1699      N1704   1.358       .  A
N1700      C1701   1.358       .  A
C1701      N1702   1.353       .  A
N1702      C1703   1.353       .  A
C1703      N1704   1.357       .  A
C1705      N1706   1.361       .  A
C1705      N1710   1.360       .  A
C1705      C1746   1.460       .  S
N1706      C1707   1.358       .  A
C1707      N1708   1.351       .  A
C1707      C2099   1.456       .  S
N1708      C1709   1.351       .  A
C1709      N1710   1.357       .  A
C1709      C1910   1.454       .  S
C1711      N1712   1.356       .  A
C1711      C1855   1.455       .  S
C1713      N1714   1.356       .  A
C1713      C2221   1.454       .  S
C1715      N1716   1.356       .  A
C1715      C1749   1.455       .  S
C1717      N1722   1.357       .  A
N1718      C1719   1.356       .  A
C1719      C2041   1.455       .  S
N1720      C1721   1.355       .  A
C1723      N1724   1.362       .  A
C1723      N1728   1.362       .  A
C1723      C1747   1.471       .  S
N1724      C1725   1.360       .  A
C1725      N1726   1.355       .  A
C1725      C2075   1.469       .  S
N1726      C1727   1.353       .  A
C1727      N1728   1.362       .  A
C1727      C2144   1.462       .  S
Zn1729     O1733   1.943       .  S
Zn1729     O1734   1.993       .  S
Zn1729     O1738   2.006       .  S
Zn1729     O1745   2.011       .  S
Zn1730     O1733   1.975       .  S
Zn1730     O1737   2.046       .  S
Zn1731     O1733   1.955       .  S
Zn1731     O1736   2.026       .  S
Zn1731     O1739   2.019       .  S
Zn1731     O1742   2.016       .  S
Zn1732     O1733   1.956       .  S
Zn1732     O1740   2.010       .  S
Zn1732     O1743   2.011       .  S
Zn1732     O1744   2.030       .  S
O1734      C1746   1.272       .  A
O1735      C1747   1.277       .  A
O1736      C1748   1.273       .  A
O1737      C1746   1.276       .  A
O1738      C1748   1.272       .  A
O1740      C1749   1.273       .  A
O1741      C1750   1.277       .  A
O1742      C1749   1.273       .  A
O1744      C1751   1.273       .  A
O1745      C1751   1.272       .  A
C1748      C2192   1.469       .  S
C1750      C1752   1.467       .  S
C1751      C2010   1.471       .  S
C1752      N1753   1.359       .  A
C1752      N1757   1.362       .  A
N1753      C1754   1.356       .  A
C1754      N1755   1.354       .  A
C1754      C1891   1.457       .  S
N1755      C1756   1.355       .  A
C1756      N1757   1.362       .  A
C1756      C1958   1.461       .  S
C1758      N1759   1.362       .  A
C1758      N1763   1.358       .  A
C1758      C1783   1.468       .  S
N1759      C1760   1.364       .  A
C1760      N1761   1.355       .  A
C1760      C1936   1.470       .  S
N1761      C1762   1.353       .  A
C1762      N1763   1.356       .  A
C1762      C1914   1.455       .  S
Zn1764     O1769   2.056       .  S
Zn1764     O1773   2.053       .  S
Zn1764     O1780   2.047       .  S
Zn1765     O1768   1.947   1_655  S
Zn1765     O1770   2.006   1_655  S
Zn1765     O1776   2.018       .  S
Zn1766     O1768   1.946   1_655  S
Zn1766     O1774   2.007   1_655  S
Zn1766     O1777   2.019       .  S
Zn1767     O1768   1.947   1_655  S
Zn1767     O1775   2.009       .  S
Zn1767     O1778   2.013       .  S
Zn1767     O1779   1.985       .  S
O1769      C1781   1.278       .  A
O1770      C1782   1.271       .  A
O1771      C1783   1.273       .  A
O1772      C1781   1.273       .  A
O1773      C1783   1.277       .  A
O1774      C1782   1.272       .  A
O1775      C1784   1.270       .  A
O1776      C1785   1.271       .  A
O1777      C1784   1.272       .  A
O1778      C1785   1.271       .  A
O1779      C1786   1.270   1_655  A
C1781      C1787   1.468       .  S
C1784      C1988   1.459       .  S
C1785      C2171   1.459       .  S
C1787      N1788   1.359       .  A
C1787      N1792   1.362       .  A
N1788      C1789   1.356       .  A
C1789      N1790   1.353       .  A
C1789      C2095   1.457       .  S
N1790      C1791   1.354       .  A
C1791      N1792   1.363       .  A
C1791      C2118   1.461       .  S
C1793      N1794   1.363       .  A
C1793      N1798   1.360       .  A
C1793      C1820   1.476       .  S
N1794      C1795   1.365       .  A
C1795      N1796   1.357       .  A
C1795      C1984   1.471       .  S
N1796      C1797   1.354       .  A
C1797      N1798   1.355       .  A
C1797      C1960   1.459       .  S
Zn1799     O1803   1.952       .  S
Zn1799     O1804   2.000       .  S
Zn1799     O1808   2.011       .  S
Zn1799     O1815   2.013       .  S
Zn1800     O1805   2.061       .  S
Zn1800     O1807   2.024       .  S
Zn1800     O1811   2.058       .  S
Zn1801     O1803   1.953       .  S
Zn1801     O1806   2.024       .  S
Zn1801     O1812   2.007       .  S
Zn1802     O1803   1.946       .  S
Zn1802     O1810   2.001       .  S
Zn1802     O1814   2.026       .  S
O1804      C1816   1.272       .  A
O1805      C1817   1.278       .  A
O1806      C1818   1.272       .  A
O1808      C1818   1.273       .  A
O1809      C1817   1.272       .  A
O1810      C1819   1.272       .  A
O1811      C1820   1.279       .  A
O1812      C1819   1.272       .  A
O1813      C1820   1.274       .  A
O1814      C1821   1.272       .  A
O1815      C1821   1.271       .  A
C1817      C1822   1.475       .  S
C1818      C2076   1.469       .  S
C1821      C1889   1.462       .  S
C1822      N1823   1.360       .  A
C1822      N1827   1.363       .  A
N1823      C1824   1.354       .  A
C1824      N1825   1.353       .  A
C1824      C2141   1.458       .  S
N1825      C1826   1.357       .  A
C1826      N1827   1.366       .  A
C1826      C2170   1.471       .  S
C1828      N1829   1.359       .  A
C1828      N1833   1.363       .  A
C1828      C1854   1.469       .  S
N1829      C1830   1.356       .  A
C1830      N1831   1.354       .  A
C1830      C2119   1.458       .  S
N1831      C1832   1.355       .  A
C1832      N1833   1.363       .  A
C1832      C2194   1.463       .  S
Zn1834     O1838   1.943       .  S
Zn1834     O1839   2.004       .  S
Zn1834     O1843   1.990       .  S
Zn1834     O1850   2.007       .  S
Zn1835     O1838   1.958       .  S
Zn1835     O1840   2.017       .  S
Zn1835     O1842   2.030       .  S
Zn1835     O1846   2.016       .  S
Zn1836     O1838   1.977   1_545  S
Zn1836     O1841   2.051   1_545  S
Zn1837     O1838   1.957       .  S
Zn1837     O1845   2.016       .  S
Zn1837     O1848   2.011       .  S
Zn1837     O1849   2.038       .  S
O1839      C1851   1.271       .  A
O1841      C1853   1.276       .  A
O1842      C1851   1.274       .  A
O1843      C1853   1.271       .  A
O1844      C1852   1.277       .  A
O1846      C1855   1.273       .  A
O1847      C1854   1.277       .  A
O1848      C1855   1.273       .  A
O1849      C1856   1.274       .  A
O1850      C1856   1.271       .  A
C1851      C1911   1.469       .  S
C1852      C1857   1.470       .  S
C1856      C2097   1.473       .  S
C1857      N1858   1.363       .  A
C1857      N1862   1.360       .  A
N1858      C1859   1.362       .  A
C1859      N1860   1.354       .  A
C1859      C2012   1.464       .  S
N1860      C1861   1.356       .  A
C1861      N1862   1.358       .  A
C1861      C1935   1.468       .  S
C1863      N1864   1.358       .  A
C1863      N1868   1.360       .  A
C1863      C1987   1.468       .  S
N1864      C1865   1.357       .  A
C1865      N1866   1.358       .  A
C1865      C1934   1.466       .  S
N1866      C1867   1.356       .  A
C1867      N1868   1.359       .  A
C1867      C1888   1.460       .  S
Zn1869     O1873   1.961       .  S
Zn1869     O1874   2.009       .  S
Zn1869     O1878   2.016       .  S
Zn1869     O1885   2.007       .  S
Zn1870     O1875   2.016       .  S
Zn1870     O1877   2.024       .  S
Zn1870     O1881   2.034       .  S
Zn1871     O1873   1.951       .  S
Zn1871     O1876   2.016       .  S
Zn1871     O1879   2.003       .  S
Zn1871     O1882   2.014       .  S
Zn1872     O1873   1.965       .  S
Zn1872     O1880   2.023       .  S
Zn1872     O1884   2.026       .  S
O1876      C1888   1.272       .  A
O1877      C1886   1.274       .  A
O1878      C1888   1.271       .  A
O1879      C1887   1.273       .  A
O1880      C1889   1.271       .  A
O1881      C1890   1.275       .  A
O1882      C1889   1.271       .  A
O1883      C1890   1.272       .  A
O1884      C1891   1.275       .  A
O1885      C1891   1.272       .  A
C1886      C1913   1.469       .  S
C1890      C2017   1.463       .  S
Zn1892     O1896   1.964       .  S
Zn1892     O1897   2.015       .  S
Zn1892     O1901   2.024       .  S
Zn1892     O1908   2.021       .  S
Zn1893     O1896   1.969       .  S
Zn1893     O1898   2.015       .  S
Zn1893     O1904   2.028       .  S
Zn1894     O1896   1.948       .  S
Zn1894     O1899   2.007       .  S
Zn1894     O1902   1.995       .  S
Zn1894     O1905   2.009       .  S
Zn1895     O1896   1.958       .  S
Zn1895     O1903   2.009       .  S
Zn1895     O1906   2.003       .  S
Zn1895     O1907   2.004       .  S
O1898      C1910   1.271       .  A
O1899      C1911   1.272       .  A
O1900      C1909   1.275       .  A
O1901      C1911   1.272       .  A
O1902      C1910   1.271       .  A
O1903      C1912   1.270       .  A
O1904      C1913   1.274       .  A
O1905      C1912   1.271       .  A
O1906      C1913   1.270       .  A
O1907      C1914   1.272       .  A
O1908      C1914   1.274       .  A
C1909      C2202   1.463       .  S
C1912      C1963   1.456       .  S
Zn1915     O1919   1.961       .  S
Zn1915     O1920   2.002       .  S
Zn1915     O1924   2.004       .  S
Zn1915     O1931   2.007       .  S
Zn1916     O1919   1.958       .  S
Zn1916     O1921   2.009       .  S
Zn1917     O1919   1.960       .  S
Zn1917     O1922   2.017       .  S
Zn1917     O1925   2.030       .  S
Zn1917     O1928   2.005       .  S
Zn1918     O1929   2.039       .  S
Zn1918     O1930   2.044       .  S
O1921      C1933   1.270       .  A
O1922      C1934   1.273       .  A
O1923      C1932   1.272   1_565  A
O1924      C1934   1.271       .  A
O1925      C1933   1.272       .  A
O1926      C1935   1.276       .  A
O1927      C1936   1.270       .  A
O1928      C1935   1.274       .  A
O1929      C1936   1.278       .  A
O1930      C1937   1.275       .  A
C1933      C2039   1.462       .  S
C1937      C1957   1.465       .  S
Zn1938     O1942   1.960       .  S
Zn1938     O1943   2.006       .  S
Zn1938     O1947   2.015       .  S
Zn1938     O1954   2.012       .  S
Zn1939     O1942   1.951       .  S
Zn1939     O1944   1.997       .  S
Zn1939     O1946   2.003       .  S
Zn1939     O1950   2.011       .  S
Zn1940     O1942   1.971       .  S
Zn1940     O1945   2.034       .  S
Zn1940     O1948   2.019       .  S
Zn1941     O1942   1.965       .  S
Zn1941     O1949   2.015       .  S
Zn1941     O1952   2.027       .  S
Zn1941     O1953   2.022       .  S
O1943      C1955   1.271       .  A
O1944      C1956   1.272       .  A
O1945      C1957   1.274       .  A
O1946      C1955   1.270       .  A
O1947      C1957   1.271       .  A
O1948      C1956   1.272       .  A
O1950      C1959   1.271       .  A
O1951      C1958   1.275       .  A
O1952      C1959   1.272       .  A
O1953      C1960   1.274       .  A
O1954      C1960   1.272       .  A
C1955      C1965   1.453       .  S
C1959      C2222   1.471       .  S
C1961      N1962   1.358       .  A
C1961      N1966   1.356       .  A
C1961      C2008   1.456       .  S
N1962      C1963   1.358       .  A
C1963      N1964   1.355       .  A
N1964      C1965   1.355       .  A
C1965      N1966   1.355       .  A
Zn1967     O1971   1.963       .  S
Zn1967     O1972   2.032       .  S
Zn1967     O1976   2.035       .  S
Zn1967     O1983   2.033       .  S
Zn1968     O1971   1.960       .  S
Zn1968     O1973   2.009       .  S
Zn1968     O1975   2.013       .  S
Zn1968     O1979   2.016       .  S
Zn1969     O1971   1.961       .  S
Zn1969     O1974   1.999       .  S
Zn1969     O1977   2.014       .  S
Zn1969     O1980   2.013       .  S
Zn1970     O1971   1.960       .  S
Zn1970     O1978   2.015       .  S
Zn1970     O1981   2.014       .  S
Zn1970     O1982   2.001       .  S
O1972      C1984   1.277       .  A
O1973      C1985   1.273       .  A
O1974      C1986   1.269       .  A
O1975      C1984   1.272       .  A
O1976      C1986   1.275       .  A
O1977      C1985   1.272       .  A
O1978      C1987   1.272       .  A
O1979      C1988   1.272       .  A
O1980      C1987   1.273       .  A
O1981      C1988   1.271       .  A
O1982      C1989   1.273       .  A
O1983      C1989   1.275       .  A
C1986      C2007   1.460       .  S
C1989      C2200   1.468       .  S
Zn1990     O1994   1.970       .  S
Zn1990     O1995   2.025       .  S
Zn1990     O1999   2.016       .  S
Zn1990     O2006   2.031       .  S
Zn1991     O1994   1.961       .  S
Zn1991     O1996   2.013       .  S
Zn1991     O1998   2.011       .  S
Zn1991     O2002   2.010       .  S
Zn1992     O1994   1.949       .  S
Zn1992     O1997   1.998       .  S
Zn1992     O2000   2.007       .  S
Zn1992     O2003   2.002       .  S
Zn1993     O1994   1.966       .  S
Zn1993     O2001   2.035       .  S
Zn1993     O2004   2.028       .  S
Zn1993     O2005   2.022       .  S
O1995      C2007   1.273       .  A
O1996      C2008   1.271       .  A
O1997      C2009   1.271       .  A
O1998      C2007   1.271       .  A
O1999      C2009   1.271       .  A
O2000      C2008   1.270       .  A
O2001      C2010   1.273       .  A
O2002      C2011   1.272       .  A
O2003      C2010   1.271       .  A
O2004      C2011   1.275       .  A
O2005      C2012   1.274       .  A
O2006      C2012   1.275       .  A
C2011      C2015   1.459       .  S
C2013      N2014   1.360       .  A
C2013      N2018   1.363       .  A
C2013      C2040   1.470       .  S
N2014      C2015   1.357       .  A
C2015      N2016   1.354       .  A
N2016      C2017   1.354       .  A
C2017      N2018   1.363       .  A
Zn2019     O2023   1.958       .  S
Zn2019     O2024   2.010       .  S
Zn2019     O2028   2.029       .  S
Zn2019     O2035   2.014       .  S
Zn2020     O2023   1.975       .  S
Zn2020     O2025   2.047       .  S
Zn2020     O2027   2.057       .  S
Zn2020     O2031   2.054       .  S
Zn2021     O2023   1.945       .  S
Zn2021     O2026   2.005       .  S
Zn2021     O2029   1.983       .  S
Zn2021     O2032   2.006       .  S
Zn2022     O2023   1.954       .  S
Zn2022     O2030   2.033       .  S
Zn2022     O2033   2.020       .  S
Zn2022     O2034   2.013       .  S
O2024      C2036   1.272       .  A
O2025      C2037   1.276       .  A
O2026      C2038   1.272       .  A
O2027      C2036   1.278       .  A
O2028      C2038   1.273       .  A
O2029      C2037   1.269       .  A
O2030      C2039   1.273       .  A
O2031      C2040   1.277       .  A
O2032      C2039   1.269       .  A
O2033      C2040   1.274       .  A
O2034      C2041   1.273       .  A
O2035      C2041   1.273       .  A
C2036      C2042   1.469       .  S
C2038      C2120   1.469       .  S
C2042      N2043   1.361       .  A
C2042      N2047   1.359       .  A
N2043      C2044   1.364       .  A
C2044      N2045   1.355       .  A
C2044      C2071   1.470       .  S
N2045      C2046   1.354       .  A
C2046      N2047   1.357       .  A
C2046      C2197   1.457       .  S
C2048      N2049   1.359       .  A
C2048      N2053   1.357       .  A
C2048      C2174   1.466       .  S
N2049      C2050   1.359       .  A
C2050      N2051   1.358       .  A
C2050      C2074   1.469       .  S
N2051      C2052   1.357       .  A
C2052      N2053   1.355       .  A
C2052      C2122   1.456       .  S
Zn2054     O2058   1.954       .  S
Zn2054     O2063   1.997       .  S
Zn2054     O2070   1.998       .  S
Zn2055     O2058   1.965       .  S
Zn2055     O2066   2.032   1_556  S
Zn2056     O2058   1.962       .  S
Zn2056     O2061   2.012       .  S
Zn2056     O2064   2.000       .  S
Zn2056     O2067   2.011       .  S
Zn2057     O2058   1.962       .  S
Zn2057     O2065   2.022       .  S
Zn2057     O2068   2.008       .  S
Zn2057     O2069   2.035       .  S
O2059      C2071   1.270       .  A
O2060      C2072   1.275       .  A
O2061      C2073   1.272       .  A
O2062      C2071   1.277       .  A
O2063      C2073   1.271       .  A
O2065      C2074   1.274       .  A
O2066      C2075   1.275       .  A
O2067      C2074   1.272       .  A
O2068      C2075   1.274   1_556  A
O2069      C2076   1.274       .  A
O2070      C2076   1.270       .  A
C2072      C2094   1.460   1_556  S
Zn2077     O2081   1.972       .  S
Zn2077     O2082   2.026       .  S
Zn2077     O2093   2.018       .  S
Zn2078     O2081   1.960       .  S
Zn2078     O2083   2.004   1_554  S
Zn2078     O2085   2.006       .  S
Zn2078     O2089   2.010       .  S
Zn2079     O2081   1.968       .  S
Zn2079     O2084   2.018       .  S
Zn2079     O2087   2.028       .  S
Zn2079     O2090   2.035       .  S
Zn2080     O2081   1.949       .  S
Zn2080     O2088   2.009       .  S
Zn2080     O2091   2.012       .  S
Zn2080     O2092   1.998       .  S
O2082      C2094   1.273       .  A
O2083      C2095   1.272       .  A
O2085      C2094   1.270       .  A
O2086      C2096   1.275       .  A
O2087      C2095   1.275   1_554  A
O2088      C2097   1.272       .  A
O2089      C2098   1.270       .  A
O2090      C2097   1.273       .  A
O2091      C2098   1.271       .  A
O2092      C2099   1.272       .  A
O2093      C2099   1.272       .  A
C2096      C2231   1.464       .  S
C2098      C2150   1.457       .  S
Zn2100     O2104   1.960       .  S
Zn2100     O2105   2.012       .  S
Zn2100     O2109   2.010   1_556  S
Zn2100     O2116   2.016       .  S
Zn2101     O2106   2.028       .  S
Zn2101     O2108   2.026       .  S
Zn2101     O2112   2.015       .  S
Zn2102     O2104   1.966       .  S
Zn2102     O2107   2.027       .  S
Zn2102     O2113   2.035       .  S
Zn2103     O2104   1.944       .  S
Zn2103     O2111   1.995       .  S
Zn2103     O2114   1.985       .  S
Zn2103     O2115   2.001       .  S
O2106      C2118   1.275       .  A
O2107      C2119   1.275   1_556  A
O2108      C2117   1.274       .  A
O2109      C2119   1.273       .  A
O2110      C2118   1.273       .  A
O2111      C2120   1.270       .  A
O2112      C2121   1.271       .  A
O2113      C2120   1.273       .  A
O2115      C2122   1.270       .  A
O2116      C2122   1.271       .  A
C2117      C2143   1.470   1_556  S
Zn2123     O2127   1.948       .  S
Zn2123     O2128   2.009       .  S
Zn2123     O2132   2.005       .  S
Zn2123     O2139   2.000       .  S
Zn2124     O2127   1.966       .  S
Zn2124     O2129   2.025       .  S
Zn2124     O2131   2.028       .  S
Zn2124     O2135   2.020       .  S
Zn2125     O2127   1.961       .  S
Zn2125     O2130   2.010       .  S
Zn2125     O2133   2.009   1_554  S
Zn2125     O2136   2.013       .  S
Zn2126     O2127   1.969       .  S
Zn2126     O2134   2.025       .  S
Zn2126     O2138   2.016       .  S
O2128      C2140   1.272       .  A
O2129      C2141   1.274   1_554  A
O2130      C2142   1.271       .  A
O2131      C2140   1.272       .  A
O2132      C2142   1.270       .  A
O2133      C2141   1.272       .  A
O2134      C2143   1.274       .  A
O2136      C2143   1.272       .  A
O2137      C2144   1.275       .  A
O2138      C2145   1.271       .  A
O2139      C2145   1.272       .  A
C2140      C2223   1.471       .  S
C2142      C2148   1.455       .  S
C2146      N2147   1.356       .  A
C2146      N2151   1.357       .  A
C2146      C2196   1.457       .  S
N2147      C2148   1.356       .  A
C2148      N2149   1.356       .  A
N2149      C2150   1.356       .  A
C2150      N2151   1.358       .  A
Zn2152     O2156   1.959       .  S
Zn2152     O2157   2.003       .  S
Zn2152     O2161   2.017       .  S
Zn2152     O2168   2.009       .  S
Zn2153     O2156   1.963       .  S
Zn2153     O2158   2.034       .  S
Zn2153     O2160   2.034   1_556  S
Zn2153     O2164   2.039       .  S
Zn2154     O2156   1.959       .  S
Zn2154     O2159   2.013       .  S
Zn2154     O2162   2.009       .  S
Zn2154     O2165   2.004       .  S
Zn2155     O2156   1.962       .  S
Zn2155     O2163   2.011       .  S
Zn2155     O2166   2.004       .  S
Zn2155     O2167   2.015       .  S
O2157      C2169   1.273   1_556  A
O2158      C2170   1.277       .  A
O2159      C2171   1.271       .  A
O2160      C2169   1.275       .  A
O2161      C2171   1.271       .  A
O2162      C2170   1.271       .  A
O2163      C2172   1.272       .  A
O2164      C2173   1.275       .  A
O2165      C2172   1.273       .  A
O2166      C2173   1.270       .  A
O2167      C2174   1.273       .  A
O2168      C2174   1.272       .  A
C2169      C2229   1.469       .  S
C2173      C2195   1.463   1_556  S
Zn2175     O2179   1.965       .  S
Zn2175     O2180   2.025       .  S
Zn2175     O2184   2.015       .  S
Zn2175     O2191   2.022       .  S
Zn2176     O2179   1.951       .  S
Zn2176     O2181   1.995       .  S
Zn2176     O2183   2.005       .  S
Zn2176     O2187   2.011       .  S
Zn2177     O2179   1.970       .  S
Zn2177     O2182   2.036       .  S
Zn2177     O2185   2.017       .  S
Zn2177     O2188   2.031       .  S
Zn2178     O2179   1.960       .  S
Zn2178     O2186   2.013       .  S
Zn2178     O2189   2.014       .  S
Zn2178     O2190   2.008   1_554  S
O2180      C2192   1.272       .  A
O2181      C2193   1.271       .  A
O2182      C2194   1.275       .  A
O2183      C2192   1.271       .  A
O2184      C2194   1.273       .  A
O2185      C2193   1.272       .  A
O2186      C2195   1.271       .  A
O2187      C2196   1.271       .  A
O2188      C2195   1.274       .  A
O2189      C2196   1.271       .  A
O2190      C2197   1.272       .  A
O2191      C2197   1.274   1_554  A
C2198      N2199   1.361       .  A
C2198      N2203   1.363       .  A
C2198      C2225   1.470       .  S
N2199      C2200   1.359       .  A
C2200      N2201   1.355       .  A
N2201      C2202   1.353       .  A
C2202      N2203   1.362       .  A
Zn2204     O2208   1.956       .  S
Zn2204     O2209   2.014       .  S
Zn2204     O2213   2.033       .  S
Zn2204     O2220   2.022       .  S
Zn2205     O2208   1.953       .  S
Zn2205     O2210   2.028       .  S
Zn2205     O2212   2.010       .  S
Zn2205     O2216   2.018       .  S
Zn2206     O2208   1.942       .  S
Zn2206     O2211   2.007       .  S
Zn2206     O2214   2.009       .  S
Zn2206     O2217   1.986       .  S
Zn2207     O2208   1.975       .  S
Zn2207     O2215   2.042       .  S
Zn2207     O2218   2.052       .  S
Zn2207     O2219   2.050       .  S
O2209      C2221   1.274       .  A
O2210      C2222   1.273       .  A
O2211      C2223   1.271       .  A
O2212      C2221   1.273       .  A
O2213      C2223   1.274       .  A
O2214      C2222   1.272       .  A
O2215      C2224   1.275       .  A
O2216      C2225   1.273       .  A
O2217      C2224   1.271       .  A
O2218      C2225   1.277       .  A
O2219      C2226   1.277       .  A
O2220      C2226   1.274       .  A
C2226      C2227   1.470       .  S
C2227      N2228   1.361       .  A
C2227      N2232   1.362       .  A
N2228      C2229   1.359       .  A
C2229      N2230   1.356       .  A
N2230      C2231   1.354       .  A
C2231      N2232   1.362       .  A
