geometry optimzed in LAMMPS
_audit_creation_date              2020-12-01 
_audit_creation_method            'lammps2cif' 
_symmetry_space_group_name_H-M    'P1' 
_symmetry_Int_Tables_number       1 
_symmetry_cell_setting            triclinic 
loop_ 
_symmetry_equiv_pos_as_xyz 
  x,y,z 
_cell_length_a                    68.73137049 
_cell_length_b                    68.71298125815326 
_cell_length_c                    68.7190219640181 
_cell_angle_alpha                 89.98833453899374 
_cell_angle_beta                  89.9431515881458 
_cell_angle_gamma                 90.01922516486037 
loop_ 
_atom_site_label 
_atom_site_type_symbol 
_atom_site_fract_x 
_atom_site_fract_y 
_atom_site_fract_z 
_atom_site_charge 
O1          O  0.05324042  0.45307753  0.83782946    -0.72500
O2          O  0.99753000  0.45857843  0.85579676    -0.73500
O3          O  0.01963462  0.47082552  0.82228463    -0.62100
O4          O  0.03187403  0.44044138  0.87079873    -0.70500
O5          O  0.03900115  0.46790653  0.88624796    -0.70100
O6          O  0.02698611  0.49850524  0.83720786    -0.61300
O7          O  0.00581881  0.48587640  0.87101529    -0.73800
O8          O  0.06060767  0.48045945  0.85335649    -0.72600
Cu9        Cu  0.02521648  0.45481329  0.84608696     1.04600
Cu10       Cu  0.03331566  0.48419521  0.86239472     1.04300
C11         C  0.06568319  0.46583336  0.84311558     0.93700
C12         C  0.99327741  0.47282986  0.86700359     0.92800
C13         C  0.02190974  0.48926388  0.82184041     0.85000
C14         C  0.03733295  0.44935767  0.88615983     0.91200
O15         O  0.04943247  0.36265858  0.06698247    -0.72500
O16         O  0.04152968  0.37903927  0.01202629    -0.73500
O17         O  0.03083558  0.34522063  0.03410353    -0.62100
O18         O  0.06013087  0.39524758  0.04411372    -0.70500
O19         O  0.08780403  0.38038767  0.03646959    -0.70100
O20         O  0.05858413  0.33084024  0.02596842    -0.61300
O21         O  0.06903889  0.36468148  0.00297976    -0.73800
O22         O  0.07694069  0.34768313  0.05904214    -0.72600
Cu23       Cu  0.04446524  0.37088348  0.03955969     1.04600
Cu24       Cu  0.07400554  0.35526175  0.03074316     1.04300
C25         C  0.06463045  0.35320840  0.07188079     0.93700
C26         C  0.05442268  0.37560507  0.99915324     0.92800
C27         C  0.04023550  0.33004286  0.02875517     0.85000
C28         C  0.07858406  0.39561353  0.04175731     0.91200
O29         O  0.86405804  0.49706160  0.92900262    -0.72500
O30         O  0.81504815  0.50829483  0.95892339    -0.73500
O31         O  0.84954513  0.53044942  0.94931523    -0.62100
O32         O  0.83045501  0.47546968  0.93929795    -0.70500
O33         O  0.84541767  0.46617980  0.96640002    -0.70100
O34         O  0.86371170  0.51991327  0.97636404    -0.61300
O35         O  0.82937285  0.49858455  0.98618642    -0.73800
O36         O  0.87872351  0.48781551  0.95626470    -0.72600
Cu37       Cu  0.83920902  0.50327519  0.94319748     1.04600
Cu38       Cu  0.85470116  0.49284525  0.97227529     1.04300
C39         C  0.87903188  0.49058879  0.93786399     0.93700
C40         C  0.81428597  0.50467063  0.97712584     0.92800
C41         C  0.86035315  0.53348460  0.96419247     0.85000
C42         C  0.83543652  0.46216268  0.95132582     0.91200
O43         O  0.15906174  0.51543178  0.07050279    -0.72500
O44         O  0.17812709  0.57101648  0.07692013    -0.73500
O45         O  0.14452996  0.54988793  0.08875347    -0.62100
O46         O  0.19334239  0.53693110  0.05931578    -0.70500
O47         O  0.17936797  0.54513965  0.03141159    -0.70100
O48         O  0.12962700  0.55724031  0.06106294    -0.61300
O49         O  0.16293703  0.57892364  0.04954034    -0.73800
O50         O  0.14495590  0.52415386  0.04278499    -0.72600
Cu51       Cu  0.16932875  0.54296486  0.07480199     1.04600
Cu52       Cu  0.15381667  0.55161575  0.04519403     1.04300
C53         C  0.14834739  0.51138953  0.05579960     0.93700
C54         C  0.17306896  0.58375453  0.06431802     0.92800
C55         C  0.12935234  0.55540041  0.07959885     0.85000
C56         C  0.19433973  0.53942169  0.04092515     0.91200
O57         O  0.99077783  0.57144816  0.19782003    -0.72500
O58         O  0.97718349  0.60400531  0.15131357    -0.73500
O59         O  0.95675272  0.59066093  0.18476679    -0.62100
O60         O  0.01161629  0.58415300  0.16370128    -0.70500
O61         O  0.00180078  0.55778842  0.14780252    -0.70100
O62         O  0.94807501  0.56420115  0.16836958    -0.61300
O63         O  0.96841567  0.57740473  0.13519173    -0.73800
O64         O  0.98178702  0.54466765  0.18216168    -0.72600
Cu65       Cu  0.98449120  0.58847433  0.17500640     1.04600
Cu66       Cu  0.97475997  0.56005107  0.15792049     1.04300
C67         C  0.98792185  0.55309908  0.19760311     0.93700
C68         C  0.97066994  0.59585628  0.13594580     0.92800
C69         C  0.94375302  0.57844523  0.17944541     0.85000
C70         C  0.01498170  0.57019818  0.15179846     0.91200
O71         O  0.94897384  0.64858999  0.97652624    -0.72500
O72         O  0.98029631  0.69686029  0.98854998    -0.73500
O73         O  0.96724369  0.66331336  0.00950310    -0.62100
O74         O  0.96206983  0.68134837  0.95496211    -0.70500
O75         O  0.93505583  0.69754871  0.96218324    -0.70100
O76         O  0.94014852  0.67883555  0.01790202    -0.61300
O77         O  0.95303561  0.71244482  0.99612458    -0.73800
O78         O  0.92178988  0.66462197  0.98350398    -0.72600
Cu79       Cu  0.96562125  0.67209787  0.98214542     1.04600
Cu80       Cu  0.93657773  0.68899308  0.99027665     1.04300
C81         C  0.93046572  0.64903047  0.97830506     0.93700
C82         C  0.97147094  0.71239579  0.99381144     0.92800
C83         C  0.95416076  0.66728003  0.02202418     0.85000
C84         C  0.94780040  0.69201809  0.94979907     0.91200
O85         O  0.81628991  0.53464930  0.56738430    -0.72500
O86         O  0.86652285  0.54739593  0.59438115    -0.73500
O87         O  0.83357567  0.56884854  0.58264113    -0.62100
O88         O  0.85071054  0.51279006  0.57896955    -0.70500
O89         O  0.86220504  0.51880421  0.54933438    -0.70100
O90         O  0.84923935  0.57484762  0.55498098    -0.61300
O91         O  0.88104930  0.55110214  0.56571410    -0.73800
O92         O  0.82972860  0.54224236  0.53899111    -0.72600
Cu93       Cu  0.84117261  0.54060240  0.58183720     1.04600
Cu94       Cu  0.85594415  0.54691938  0.55124139     1.04300
C95         C  0.81485619  0.53728271  0.54902051     0.93700
C96         C  0.88171524  0.55089102  0.58430074     0.92800
C97         C  0.83946710  0.58075128  0.56960524     0.85000
C98         C  0.85972806  0.50727500  0.56362726     0.91200
O99         O  0.98074915  0.34640935  0.53170663    -0.72500
O100        O  0.95118261  0.39565563  0.54396634    -0.73500
O101        O  0.96115497  0.36186386  0.56457558    -0.62100
O102        O  0.97085866  0.38137990  0.51088497    -0.70500
O103        O  0.94465025  0.36615240  0.49974351    -0.70100
O104        O  0.93345255  0.34817095  0.55514583    -0.61300
O105        O  0.92448331  0.38177109  0.53218077    -0.73800
O106        O  0.95326645  0.33206052  0.52265512    -0.72600
Cu107      Cu  0.96698593  0.37170837  0.53804141     1.04600
Cu108      Cu  0.93801239  0.35647707  0.52703012     1.04300
C109        C  0.97152216  0.33129772  0.52593274     0.93700
C110        C  0.93311558  0.39639310  0.53972797     0.92800
C111        C  0.94568439  0.35244784  0.56854082     0.85000
C112        C  0.95914317  0.37755048  0.49700603     0.91200
O113        O  0.00741289  0.48423713  0.36559798    -0.72500
O114        O  0.95290195  0.47756370  0.34848106    -0.73500
O115        O  0.97495108  0.46510128  0.38106428    -0.62100
O116        O  0.98581203  0.49629977  0.33216743    -0.70500
O117        O  0.99379742  0.46899596  0.31687596    -0.70100
O118        O  0.98233402  0.43792943  0.36523443    -0.61300
O119        O  0.96029896  0.45051469  0.33243371    -0.73800
O120        O  0.01639205  0.45712813  0.35047500    -0.72600
Cu121      Cu  0.98003735  0.48174872  0.35726491     1.04600
Cu122      Cu  0.98858750  0.45269864  0.34063996     1.04300
C123        C  0.02032503  0.47158472  0.36159973     0.93700
C124        C  0.94778913  0.46312198  0.33803814     0.92800
C125        C  0.97692043  0.44658545  0.38077332     0.85000
C126        C  0.99104623  0.48737007  0.31666643     0.91200
O127        O  0.18311385  0.47480202  0.43738757    -0.72500
O128        O  0.16335995  0.53022518  0.44342456    -0.73500
O129        O  0.19737550  0.50870405  0.45581346    -0.62100
O130        O  0.14979680  0.49576323  0.42439488    -0.70500
O131        O  0.13393991  0.48820982  0.45154361    -0.70100
O132        O  0.18204338  0.50049224  0.48304502    -0.61300
O133        O  0.14794878  0.52130869  0.47042040    -0.73800
O134        O  0.16699802  0.46695053  0.46428556    -0.72600
Cu135      Cu  0.17401124  0.50276276  0.43933410     1.04600
Cu136      Cu  0.15728750  0.49399177  0.46829544     1.04300
C137        C  0.17784812  0.46215457  0.44999620     0.93700
C138        C  0.15181416  0.53409163  0.45755747     0.92800
C139        C  0.19750532  0.50595891  0.47419547     0.85000
C140        C  0.13433111  0.49015961  0.43303748     0.91200
O141        O  0.03123993  0.54089060  0.68514263    -0.72500
O142        O  0.04240745  0.57036433  0.63528429    -0.73500
O143        O  0.06419776  0.56004893  0.66872500    -0.62100
O144        O  0.01001700  0.55116068  0.65064378    -0.70500
O145        O  0.00054272  0.57869128  0.66471863    -0.70100
O146        O  0.05534060  0.58724132  0.68380271    -0.61300
O147        O  0.03424513  0.59787678  0.65016581    -0.73800
O148        O  0.02194878  0.56845643  0.69916757    -0.72600
Cu149      Cu  0.03725949  0.55459064  0.65956649     1.04600
Cu150      Cu  0.02762217  0.58397597  0.67502989     1.04300
C151        C  0.02508558  0.55017304  0.70010590     0.93700
C152        C  0.04006331  0.58882851  0.63502513     0.92800
C153        C  0.06846784  0.57510418  0.67870292     0.85000
C154        C  0.99699139  0.56392487  0.65394414     0.91200
O155        O  0.04083757  0.66005573  0.50915183    -0.72500
O156        O  0.04817693  0.68029462  0.45542546    -0.73500
O157        O  0.06018138  0.64663898  0.47575324    -0.62100
O158        O  0.02893055  0.69471708  0.48919237    -0.70500
O159        O  0.05630294  0.70963088  0.49762135    -0.70100
O160        O  0.08726097  0.66163240  0.48497806    -0.61300
O161        O  0.07553970  0.69519697  0.46393727    -0.73800
O162        O  0.06758169  0.67520737  0.51908755    -0.72600
Cu163      Cu  0.04355571  0.67001183  0.48213333     1.04600
Cu164      Cu  0.07257745  0.68602393  0.49184255     1.04300
C165        C  0.05327774  0.66369396  0.52239002     0.93700
C166        C  0.06312796  0.69035298  0.45094340     0.92800
C167        C  0.07863624  0.64663774  0.47820281     0.85000
C168        C  0.03791956  0.70997111  0.49498303     0.91200
O169        O  0.53533820  0.60276173  0.87409532    -0.72500
O170        O  0.52101935  0.57433743  0.82498863    -0.73500
O171        O  0.50015241  0.58573972  0.85965405    -0.62100
O172        O  0.55550552  0.59095816  0.83996603    -0.70500
O173        O  0.56311186  0.56303488  0.85433637    -0.70100
O174        O  0.50848305  0.55801856  0.87400334    -0.61300
O175        O  0.52843586  0.54619141  0.83896916    -0.73800
O176        O  0.54282504  0.57479174  0.88842920    -0.72600
Cu177      Cu  0.52766059  0.58939409  0.84915705     1.04600
Cu178      Cu  0.53591445  0.55948021  0.86434126     1.04300
C179        C  0.54132526  0.59333673  0.88894997     0.93700
C180        C  0.52303927  0.55588627  0.82400154     0.92800
C181        C  0.49593893  0.57128068  0.87063242     0.85000
C182        C  0.56800154  0.57787258  0.84426749     0.91200
O183        O  0.37995587  0.55339488  0.95841330    -0.72500
O184        O  0.33020743  0.54066832  0.98759189    -0.73500
O185        O  0.36482194  0.51998805  0.97615081    -0.62100
O186        O  0.34674620  0.57443676  0.97034814    -0.70500
O187        O  0.33155815  0.56720976  0.94277646    -0.70100
O188        O  0.35107541  0.51135976  0.94822827    -0.61300
O189        O  0.31633121  0.53259731  0.95960089    -0.73800
O190        O  0.36530615  0.54651727  0.93047336    -0.72600
Cu191      Cu  0.35581208  0.54729592  0.97411028     1.04600
Cu192      Cu  0.34048181  0.53903367  0.94430624     1.04300
C193        C  0.38033076  0.55213991  0.93983100     0.93700
C194        C  0.31521709  0.53516821  0.97797837     0.92800
C195        C  0.36183921  0.50736289  0.96293739     0.85000
C196        C  0.33667634  0.57962967  0.95569373     0.91200
O197        O  0.42754065  0.38030044  0.99133297    -0.72500
O198        O  0.45859628  0.33215415  0.00286009    -0.73500
O199        O  0.44735859  0.36603308  0.02515874    -0.62100
O200        O  0.43939878  0.34726726  0.96960801    -0.70500
O201        O  0.46637386  0.36289657  0.96108799    -0.70100
O202        O  0.47431522  0.38102328  0.01552408    -0.61300
O203        O  0.48586407  0.34703552  0.99402215    -0.73800
O204        O  0.45459344  0.39586298  0.98294377    -0.72600
Cu205      Cu  0.44232031  0.35584637  0.99765267     1.04600
Cu206      Cu  0.47126366  0.37214814  0.98814037     1.04300
C207        C  0.43611209  0.39562587  0.98526782     0.93700
C208        C  0.47691154  0.33171235  0.99973176     0.92800
C209        C  0.46189367  0.37715947  0.02875235     0.85000
C210        C  0.45161049  0.35259064  0.95658958     0.91200
O211        O  0.51825414  0.45777130  0.17342445    -0.72500
O212        O  0.46262676  0.45179095  0.19245654    -0.73500
O213        O  0.48377584  0.43921547  0.15921158    -0.62100
O214        O  0.49660212  0.46992684  0.20766747    -0.70500
O215        O  0.48863660  0.49735804  0.19263592    -0.70100
O216        O  0.47641427  0.46663059  0.14378105    -0.61300
O217        O  0.45502170  0.47903740  0.17681441    -0.73800
O218        O  0.50938738  0.48504051  0.15850298    -0.72600
Cu219      Cu  0.49068429  0.45375038  0.18382930     1.04600
Cu220      Cu  0.48212956  0.48300002  0.16755091     1.04300
C221        C  0.52209293  0.47204305  0.16204499     0.93700
C222        C  0.45003991  0.46438042  0.18702098     0.92800
C223        C  0.47830490  0.44810566  0.14383502     0.85000
C224        C  0.49412752  0.48836718  0.20800492     0.91200
O225        O  0.57415915  0.69773662  0.06205967    -0.72500
O226        O  0.56956352  0.67733563  0.00689425    -0.73500
O227        O  0.55661101  0.71133858  0.02738711    -0.62100
O228        O  0.58780603  0.66455066  0.04174774    -0.70500
O229        O  0.56084972  0.64862424  0.04980702    -0.70100
O230        O  0.52916877  0.69618678  0.03522409    -0.61300
O231        O  0.54274778  0.66155633  0.01568319    -0.73800
O232        O  0.54705939  0.68198388  0.06993928    -0.72600
Cu233      Cu  0.57291180  0.68834500  0.03418378     1.04600
Cu234      Cu  0.54392453  0.67163429  0.04289548     1.04300
C235        C  0.56145105  0.69267508  0.07472158     0.93700
C236        C  0.55576046  0.66543312  0.00302726     0.92800
C237        C  0.53818253  0.71146202  0.02942673     0.85000
C238        C  0.57936226  0.64920784  0.04790209     0.91200
O239        O  0.64643517  0.52220189  0.04819457    -0.72500
O240        O  0.66354557  0.46730506  0.05366126    -0.73500
O241        O  0.63197219  0.48957398  0.06770750    -0.62100
O242        O  0.67908724  0.50030514  0.03415716    -0.70500
O243        O  0.69549198  0.50833409  0.06078857    -0.70100
O244        O  0.64892304  0.49685121  0.09422098    -0.61300
O245        O  0.68095071  0.47495388  0.07978953    -0.73800
O246        O  0.66287507  0.53086577  0.07463382    -0.72600
Cu247      Cu  0.65476823  0.49464489  0.04997277     1.04600
Cu248      Cu  0.67272442  0.50312593  0.07825003     1.04300
C249        C  0.65097567  0.53491702  0.06089842     0.93700
C250        C  0.67472916  0.46235324  0.06759404     0.92800
C251        C  0.63308291  0.49141237  0.08619682     0.85000
C252        C  0.69492903  0.50551106  0.04243863     0.91200
O253        O  0.41835774  0.66842700  0.54070244    -0.72500
O254        O  0.44864508  0.71660864  0.52654789    -0.73500
O255        O  0.43413756  0.68312971  0.50513401    -0.62100
O256        O  0.43306691  0.70076778  0.56137825    -0.70500
O257        O  0.46026713  0.68412059  0.56657952    -0.70100
O258        O  0.46260518  0.66885930  0.51057041    -0.61300
O259        O  0.47643850  0.70130594  0.53250761    -0.73800
O260        O  0.44613680  0.65240360  0.54458873    -0.72600
Cu261      Cu  0.43260210  0.69286376  0.53313746     1.04600
Cu262      Cu  0.46233297  0.67619073  0.53869083     1.04300
C263        C  0.42753679  0.65283447  0.54490586     0.93700
C264        C  0.46719356  0.71681652  0.52802042     0.92800
C265        C  0.44853110  0.67287422  0.49920024     0.85000
C266        C  0.44627679  0.69455978  0.57289684     0.91200
O267        O  0.51690957  0.58941766  0.35891713    -0.72500
O268        O  0.46249418  0.59808590  0.33757460    -0.73500
O269        O  0.48334287  0.61025191  0.37162484    -0.62100
O270        O  0.49604504  0.57790081  0.32433510    -0.70500
O271        O  0.48702884  0.55111616  0.33994625    -0.70100
O272        O  0.47164925  0.58417599  0.38668133    -0.61300
O273        O  0.45327349  0.57099269  0.35263778    -0.73800
O274        O  0.50556593  0.56394003  0.37528104    -0.72600
Cu275      Cu  0.49014500  0.59484100  0.34751926     1.04600
Cu276      Cu  0.47913345  0.56661039  0.36409671     1.04300
C277        C  0.51935283  0.57562918  0.37121748     0.93700
C278        C  0.44934866  0.58564581  0.34203959     0.92800
C279        C  0.47520349  0.60245881  0.38644182     0.85000
C280        C  0.49316669  0.55952717  0.32445989     0.91200
O281        O  0.69530960  0.53771536  0.46497019    -0.72500
O282        O  0.64704889  0.55179969  0.43543001    -0.73500
O283        O  0.68036518  0.57238561  0.44846373    -0.62100
O284        O  0.66121363  0.51666320  0.45222257    -0.70500
O285        O  0.64624496  0.52443496  0.47980971    -0.70100
O286        O  0.66502309  0.57920822  0.47608639    -0.61300
O287        O  0.63178539  0.55844842  0.46315322    -0.73800
O288        O  0.68054111  0.54462244  0.49286313    -0.72600
Cu289      Cu  0.67159165  0.54431714  0.44933451     1.04600
Cu290      Cu  0.65550211  0.55186337  0.47899439     1.04300
C291        C  0.69578477  0.53950749  0.48346397     0.93700
C292        C  0.63180113  0.55713658  0.44459806     0.92800
C293        C  0.67526752  0.58459592  0.46155788     0.85000
C294        C  0.64981272  0.51224166  0.46629892     0.91200
O295        O  0.52759884  0.34953409  0.49127442    -0.72500
O296        O  0.55761789  0.39882795  0.47856521    -0.73500
O297        O  0.54579676  0.36533021  0.45745761    -0.62100
O298        O  0.53905737  0.38415930  0.51175930    -0.70500
O299        O  0.56639114  0.36957408  0.52091433    -0.70100
O300        O  0.57323923  0.35026131  0.46537655    -0.61300
O301        O  0.58507655  0.38380793  0.48652877    -0.73800
O302        O  0.55534842  0.33523540  0.49947371    -0.72600
Cu303      Cu  0.54152160  0.37486586  0.48451741     1.04600
Cu304      Cu  0.57094735  0.35914658  0.49344583     1.04300
C305        C  0.53696492  0.33445346  0.49695458     0.93700
C306        C  0.57612668  0.39897095  0.48064550     0.92800
C307        C  0.56058442  0.35521292  0.45264685     0.85000
C308        C  0.55184600  0.38062180  0.52467706     0.91200
O309        O  0.55797049  0.47977809  0.67181469    -0.72500
O310        O  0.50313132  0.48912682  0.65641391    -0.73500
O311        O  0.52593274  0.49936763  0.68953355    -0.62100
O312        O  0.53469584  0.46935078  0.63963635    -0.70500
O313        O  0.52694403  0.44188092  0.65479509    -0.70100
O314        O  0.51672255  0.47199650  0.70399986    -0.61300
O315        O  0.49360413  0.46162276  0.67045574    -0.73800
O316        O  0.54968183  0.45281951  0.68760389    -0.72600
Cu317      Cu  0.53068567  0.48536010  0.66393855     1.04600
Cu318      Cu  0.52133884  0.45613157  0.67981480     1.04300
C319        C  0.56266743  0.46486927  0.68178294     0.93700
C320        C  0.48987064  0.47673182  0.66016827     0.92800
C321        C  0.52015631  0.49026210  0.70472766     0.85000
C322        C  0.53241666  0.45087271  0.63947408     0.91200
O323        O  0.32896667  0.47759048  0.58262886    -0.72500
O324        O  0.34751306  0.53302325  0.57445165    -0.73500
O325        O  0.31419148  0.51031881  0.56241965    -0.62100
O326        O  0.36131141  0.49975295  0.59513162    -0.70500
O327        O  0.37790968  0.49141595  0.56865453    -0.70100
O328        O  0.32992619  0.50084741  0.53584789    -0.61300
O329        O  0.36323450  0.52320484  0.54797294    -0.73800
O330        O  0.34580136  0.46860031  0.55653044    -0.72600
Cu331      Cu  0.33735072  0.50558343  0.57951811     1.04600
Cu332      Cu  0.35467461  0.49574166  0.55126727     1.04300
C333        C  0.33498385  0.46435256  0.57099980     0.93700
C334        C  0.35915428  0.53646622  0.56030075     0.92800
C335        C  0.31430927  0.50664624  0.54420339     0.85000
C336        C  0.37702596  0.49406584  0.58705596     0.91200
O337        O  0.55622542  0.83290761  0.52628902    -0.72500
O338        O  0.58884053  0.87991359  0.53708124    -0.73500
O339        O  0.57672627  0.84687423  0.55924057    -0.62100
O340        O  0.56752373  0.86675861  0.50435972    -0.70500
O341        O  0.54230839  0.88346725  0.51574126    -0.70100
O342        O  0.54988815  0.86230110  0.56854122    -0.61300
O343        O  0.56326215  0.89570156  0.54894600    -0.73800
O344        O  0.52963069  0.84875762  0.53545230    -0.72600
Cu345      Cu  0.57322073  0.85598577  0.53133834     1.04600
Cu346      Cu  0.54530429  0.87303375  0.54244093     1.04300
C347        C  0.53793247  0.83316959  0.52943725     0.93700
C348        C  0.58141964  0.89507305  0.54480587     0.92800
C349        C  0.56458978  0.85179263  0.57250522     0.85000
C350        C  0.55381688  0.87912563  0.50186902     0.91200
O351        O  0.50298767  0.95978113  0.35662693    -0.72500
O352        O  0.55946079  0.95545201  0.33919492    -0.73500
O353        O  0.53749820  0.94214217  0.37157056    -0.62100
O354        O  0.52527940  0.97215171  0.32320787    -0.70500
O355        O  0.53259013  0.99992716  0.33795244    -0.70100
O356        O  0.54365484  0.96953186  0.38756613    -0.61300
O357        O  0.56619944  0.98254619  0.35545655    -0.73800
O358        O  0.51076134  0.98737174  0.37154077    -0.72600
Cu359      Cu  0.53100943  0.95646285  0.34703984     1.04600
Cu360      Cu  0.53849848  0.98586562  0.36354842     1.04300
C361        C  0.49840360  0.97412316  0.36764612     0.93700
C362        C  0.57172133  0.96818749  0.34511563     0.92800
C363        C  0.54225088  0.95095940  0.38719126     0.85000
C364        C  0.52748348  0.99056613  0.32263003     0.91200
O365        O  0.48241673  0.19964637  0.49100038    -0.72500
O366        O  0.45465257  0.14963492  0.47742585    -0.73500
O367        O  0.46650920  0.18325892  0.45656671    -0.62100
O368        O  0.47078139  0.16484844  0.51138036    -0.70500
O369        O  0.44245229  0.17830338  0.51912351    -0.70100
O370        O  0.43853974  0.19796273  0.46327869    -0.61300
O371        O  0.42634273  0.16399880  0.48351444    -0.73800
O372        O  0.45409319  0.21332810  0.49829381    -0.72600
Cu373      Cu  0.46959559  0.17398982  0.48392801     1.04600
Cu374      Cu  0.43937700  0.18896725  0.49139157     1.04300
C375        C  0.47252827  0.21454249  0.49623122     0.93700
C376        C  0.43608632  0.14905374  0.47835993     0.92800
C377        C  0.45186768  0.19326202  0.45112734     0.85000
C378        C  0.45704936  0.16755906  0.52355088     0.91200
O379        O  0.31958841  0.00994049  0.45971416    -0.72500
O380        O  0.36800834  0.99657990  0.42940935    -0.73500
O381        O  0.33420245  0.97577815  0.44152621    -0.62100
O382        O  0.35404163  0.03092238  0.44821367    -0.70500
O383        O  0.36851043  0.02170847  0.47559846    -0.70100
O384        O  0.34958035  0.96756324  0.46871940    -0.61300
O385        O  0.38308460  0.98865534  0.45684115    -0.73800
O386        O  0.33410905  0.00124649  0.48719787    -0.72600
Cu387      Cu  0.34337586  0.00366295  0.44377735     1.04600
Cu388      Cu  0.35923068  0.99451982  0.47306959     1.04300
C389        C  0.31902807  0.00733958  0.47810586     0.93700
C390        C  0.38323067  0.99078083  0.43833444     0.92800
C391        C  0.33918690  0.96296113  0.45406765     0.85000
C392        C  0.36506753  0.03462226  0.46276500     0.91200
O393        O  0.49273647  0.07092148  0.69892367    -0.72500
O394        O  0.47952551  0.10074786  0.65060511    -0.73500
O395        O  0.45897795  0.08999553  0.68473210    -0.62100
O396        O  0.51354535  0.08089884  0.66406632    -0.70500
O397        O  0.50320546  0.05353866  0.65033685    -0.70100
O398        O  0.44940289  0.06296872  0.66984091    -0.61300
O399        O  0.47059616  0.07344121  0.63582955    -0.73800
O400        O  0.48274199  0.04337967  0.68536429    -0.72600
Cu401      Cu  0.48660954  0.08653587  0.67512738     1.04600
Cu402      Cu  0.47617337  0.05731781  0.65994275     1.04300
C403        C  0.48944880  0.05267928  0.70006753     0.93700
C404        C  0.47312286  0.09190918  0.63559704     0.92800
C405        C  0.44553288  0.07801206  0.67999701     0.85000
C406        C  0.51663841  0.06597194  0.65334511     0.91200
O407        O  0.68232836  0.04225840  0.53622022    -0.72500
O408        O  0.63262509  0.05034072  0.56633721    -0.73500
O409        O  0.66314487  0.07484936  0.55325689    -0.62100
O410        O  0.65146585  0.01803029  0.54906426    -0.70500
O411        O  0.66496318  0.01269830  0.57792013    -0.70100
O412        O  0.68059749  0.06938584  0.57988813    -0.61300
O413        O  0.64890900  0.04729778  0.59406777    -0.73800
O414        O  0.69757628  0.03532471  0.56382457    -0.72600
Cu415      Cu  0.65689508  0.04653992  0.55024440     1.04600
Cu416      Cu  0.67364511  0.04092735  0.57988172     1.04300
C417        C  0.69779502  0.03742847  0.54534530     0.93700
C418        C  0.63305743  0.05045948  0.58493499     0.92800
C419        C  0.67371200  0.08108899  0.56718128     0.85000
C420        C  0.65554967  0.00656734  0.56306864     0.91200
O421        O  0.44750523  0.86612467  0.00139385    -0.72500
O422        O  0.43849216  0.84651801  0.05624521    -0.73500
O423        O  0.42672913  0.87962430  0.03416897    -0.62100
O424        O  0.45860391  0.83241482  0.02333793    -0.70500
O425        O  0.48566635  0.84797073  0.03163045    -0.70100
O426        O  0.45248202  0.89493628  0.04624574    -0.61300
O427        O  0.46587024  0.86111538  0.06528261    -0.73800
O428        O  0.47273944  0.88302515  0.01245214    -0.72600
Cu429      Cu  0.44196557  0.85556257  0.02838466     1.04600
Cu430      Cu  0.47020302  0.87224909  0.03916246     1.04300
C431        C  0.46106727  0.87861417  0.99875460     0.93700
C432        C  0.45091985  0.85095253  0.06937133     0.92800
C433        C  0.43432549  0.89458489  0.04208860     0.85000
C434        C  0.47693610  0.83245056  0.02605155     0.91200
O435        O  0.31679028  0.03367622  0.06520722    -0.72500
O436        O  0.36620922  0.04571248  0.09454704    -0.73500
O437        O  0.33344976  0.06742676  0.08221024    -0.62100
O438        O  0.35053191  0.01136959  0.07751984    -0.70500
O439        O  0.36365519  0.01795576  0.04872767    -0.70100
O440        O  0.34940510  0.07425985  0.05493894    -0.61300
O441        O  0.38155150  0.05085354  0.06658507    -0.73800
O442        O  0.33113790  0.04138771  0.03732508    -0.72600
Cu443      Cu  0.34117146  0.03921292  0.08079363     1.04600
Cu444      Cu  0.35691750  0.04630548  0.05089505     1.04300
C445        C  0.31591222  0.03632801  0.04679611     0.93700
C446        C  0.38166294  0.05014814  0.08520197     0.92800
C447        C  0.33922605  0.07972350  0.06950611     0.85000
C448        C  0.36008680  0.00597235  0.06246658     0.91200
O449        O  0.49522001  0.97235406  0.82221457    -0.72500
O450        O  0.48312309  0.94329727  0.87117102    -0.73500
O451        O  0.46175634  0.95406089  0.83773041    -0.62100
O452        O  0.51707879  0.96223518  0.85662510    -0.70500
O453        O  0.50769065  0.98991456  0.87040734    -0.70100
O454        O  0.45321361  0.98144327  0.85263050    -0.61300
O455        O  0.47505048  0.97092748  0.88588256    -0.73800
O456        O  0.48632287  0.00021268  0.83592095    -0.72600
Cu457      Cu  0.48970669  0.95708014  0.84636735     1.04600
Cu458      Cu  0.48031998  0.98665061  0.86159889     1.04300
C459        C  0.49210959  0.99062196  0.82101864     0.93700
C460        C  0.47718954  0.95243312  0.88619384     0.92800
C461        C  0.44873742  0.96637838  0.84277848     0.85000
C462        C  0.52071167  0.97708443  0.86730492     0.91200
O463        O  0.54481207  0.07262779  0.13628144    -0.72500
O464        O  0.53225282  0.04090372  0.18462144    -0.73500
O465        O  0.51164132  0.05308090  0.14985412    -0.62100
O466        O  0.56572480  0.06024234  0.16974115    -0.70500
O467        O  0.55691739  0.08712457  0.18535958    -0.70100
O468        O  0.50187882  0.07979382  0.16517558    -0.61300
O469        O  0.52334195  0.06816851  0.19945785    -0.73800
O470        O  0.53606049  0.09943675  0.15207222    -0.72600
Cu471      Cu  0.53885550  0.05570146  0.15966395     1.04600
Cu472      Cu  0.52912749  0.08450249  0.17608508     1.04300
C473        C  0.54245494  0.09109302  0.13677529     0.93700
C474        C  0.52650108  0.04988855  0.19993618     0.92800
C475        C  0.49848385  0.06565386  0.15350868     0.85000
C476        C  0.56998295  0.07482949  0.18040256     0.91200
O477        O  0.55291869  0.18299678  0.95821183    -0.72500
O478        O  0.54571383  0.16341478  0.01191108    -0.73500
O479        O  0.53443227  0.19817040  0.99192625    -0.62100
O480        O  0.56463241  0.14925173  0.97893308    -0.70500
O481        O  0.59212042  0.16423604  0.98691635    -0.70100
O482        O  0.56201941  0.21234960  0.00087988    -0.61300
O483        O  0.57320957  0.17738951  0.02154345    -0.73800
O484        O  0.58017491  0.19823858  0.96644299    -0.72600
Cu485      Cu  0.54845675  0.17306628  0.98498110     1.04600
Cu486      Cu  0.57782397  0.18864975  0.99434631     1.04300
C487        C  0.56755258  0.19342982  0.95361670     0.93700
C488        C  0.55860474  0.16626909  0.02488695     0.92800
C489        C  0.54366775  0.21312890  0.99810072     0.85000
C490        C  0.58313336  0.14911733  0.98095232     0.91200
O491        O  0.68155257  0.97310716  0.94712261    -0.72500
O492        O  0.66202590  0.02828553  0.95263842    -0.73500
O493        O  0.69603588  0.00735724  0.96487516    -0.62100
O494        O  0.64792747  0.99360290  0.93457394    -0.70500
O495        O  0.63253829  0.98603431  0.96198828    -0.70100
O496        O  0.68116720  0.99905700  0.99234118    -0.61300
O497        O  0.64710803  0.01947724  0.97994394    -0.73800
O498        O  0.66607790  0.96478433  0.97425774    -0.72600
Cu499      Cu  0.67246293  0.00089473  0.94887168     1.04600
Cu500      Cu  0.65629542  0.99206103  0.97813514     1.04300
C501        C  0.67669196  0.96026499  0.95969229     0.93700
C502        C  0.65080836  0.03223603  0.96696344     0.92800
C503        C  0.69630139  0.00512213  0.98331552     0.85000
C504        C  0.63259836  0.98801544  0.94348908     0.91200
O505        O  0.96592983  0.17983069  0.06835014    -0.72500
O506        O  0.97255429  0.16042465  0.01440362    -0.73500
O507        O  0.98546899  0.19427830  0.03499749    -0.62100
O508        O  0.95271955  0.14703368  0.04746126    -0.70500
O509        O  0.92603934  0.16310138  0.03888358    -0.70100
O510        O  0.95858748  0.20986837  0.02621931    -0.61300
O511        O  0.94611265  0.17624947  0.00469560    -0.73800
O512        O  0.93925095  0.19599364  0.05994111    -0.72600
Cu513      Cu  0.97011901  0.16990113  0.04155254     1.04600
Cu514      Cu  0.94158888  0.18691543  0.03202996     1.04300
C515        C  0.95154004  0.19063296  0.07284183     0.93700
C516        C  0.96028018  0.16464907  0.00119474     0.92800
C517        C  0.97692925  0.20973875  0.02907458     0.85000
C518        C  0.93424639  0.14772304  0.04525748     0.91200
O519        O  0.84880609  0.03180725  0.07917962    -0.72500
O520        O  0.82978872  0.97608947  0.08443037    -0.73500
O521        O  0.86296653  0.99702649  0.09737343    -0.62100
O522        O  0.81506190  0.01039785  0.06678758    -0.70500
O523        O  0.83021253  0.00269635  0.03930032    -0.70100
O524        O  0.87859225  0.98984349  0.06999562    -0.61300
O525        O  0.84567082  0.96865589  0.05727451    -0.73800
O526        O  0.86400378  0.02324236  0.05194766    -0.72600
Cu527      Cu  0.83855466  0.00417785  0.08287970     1.04600
Cu528      Cu  0.85504526  0.99588167  0.05363752     1.04300
C529        C  0.86007146  0.03590083  0.06489862     0.93700
C530        C  0.83519637  0.96358057  0.07174757     0.92800
C531        C  0.87831237  0.99140229  0.08853838     0.85000
C532        C  0.81491365  0.00829885  0.04833926     0.91200
O533        O  0.00409970  0.98295850  0.15731180    -0.72500
O534        O  0.05851805  0.97671368  0.17510495    -0.73500
O535        O  0.03722098  0.96480887  0.14198778    -0.62100
O536        O  0.02485688  0.99440232  0.19147397    -0.70500
O537        O  0.01698728  0.96661585  0.20594327    -0.70100
O538        O  0.02957572  0.93714725  0.15683157    -0.61300
O539        O  0.05107956  0.94909813  0.19017665    -0.73800
O540        O  0.99506715  0.95548828  0.17175890    -0.72600
Cu541      Cu  0.03138141  0.98069512  0.16608632     1.04600
Cu542      Cu  0.02280723  0.95112107  0.18177451     1.04300
C543        C  0.99120969  0.97014433  0.16087357     0.93700
C544        C  0.06361311  0.96190082  0.18499106     0.92800
C545        C  0.03536447  0.94627195  0.14170106     0.85000
C546        C  0.01941225  0.98503450  0.20664065     0.91200
O547        O  0.06839394  0.86451735  0.02272984    -0.72500
O548        O  0.07572276  0.84613940  0.96692608    -0.73500
O549        O  0.08831106  0.87891167  0.98882224    -0.62100
O550        O  0.05632150  0.83105568  0.00001626    -0.70500
O551        O  0.02948704  0.84679495  0.99138359    -0.70100
O552        O  0.06141967  0.89499369  0.98093817    -0.61300
O553        O  0.04913863  0.86252475  0.95868108    -0.73800
O554        O  0.04176249  0.88023349  0.01341843    -0.72600
Cu555      Cu  0.07310354  0.85453892  0.99503514     1.04600
Cu556      Cu  0.04449512  0.87158467  0.98587183     1.04300
C557        C  0.05418140  0.87599261  0.02651072     0.93700
C558        C  0.06357889  0.85182521  0.95403026     0.92800
C559        C  0.07987231  0.89446477  0.98314980     0.85000
C560        C  0.03803401  0.83114000  0.99674015     0.91200
O561        O  0.19582952  0.03513657  0.96216272    -0.72500
O562        O  0.14704103  0.04698718  0.93185229    -0.73500
O563        O  0.17995948  0.06880615  0.94416020    -0.62100
O564        O  0.16197208  0.01283087  0.95045741    -0.70500
O565        O  0.14761265  0.02152813  0.97807033    -0.70100
O566        O  0.16430081  0.07643605  0.97138802    -0.61300
O567        O  0.13153482  0.05404929  0.95929826    -0.73800
O568        O  0.18122550  0.04329034  0.98977322    -0.72600
Cu569      Cu  0.17180098  0.04059465  0.94623305     1.04600
Cu570      Cu  0.15573442  0.04906962  0.97561034     1.04300
C571        C  0.19649324  0.03782822  0.98055522     0.93700
C572        C  0.13156848  0.05215780  0.94074735     0.92800
C573        C  0.17452384  0.08142687  0.95672611     0.85000
C574        C  0.15125437  0.00872951  0.96516936     0.91200
O575        O  0.97235663  0.07530398  0.88648002    -0.72500
O576        O  0.98171574  0.04410998  0.83734192    -0.73500
O577        O  0.00405845  0.05483757  0.87115285    -0.62100
O578        O  0.94937540  0.06439578  0.85380627    -0.70500
O579        O  0.95851103  0.09103904  0.83797381    -0.70100
O580        O  0.01416075  0.08171662  0.85634663    -0.61300
O581        O  0.99124571  0.07122673  0.82259175    -0.73800
O582        O  0.98101715  0.10228734  0.87092099    -0.72600
Cu583      Cu  0.97657071  0.05869255  0.86262922     1.04600
Cu584      Cu  0.98663109  0.08746798  0.84636421     1.04300
C585        C  0.97532776  0.09368736  0.88636297     0.93700
C586        C  0.98763976  0.05301956  0.82206345     0.92800
C587        C  0.01751860  0.06705132  0.86739893     0.85000
C588        C  0.94519226  0.07914229  0.84333691     0.91200
O589        O  0.03400833  0.10103633  0.37341134    -0.72500
O590        O  0.02223815  0.07103368  0.32490812    -0.73500
O591        O  0.00003791  0.08252164  0.35869008    -0.62100
O592        O  0.05604230  0.08904295  0.34050225    -0.70500
O593        O  0.06390926  0.06177968  0.35595339    -0.70100
O594        O  0.00919025  0.05540309  0.37368414    -0.61300
O595        O  0.03030564  0.04348573  0.33970096    -0.73800
O596        O  0.04220191  0.07380163  0.38876118    -0.72600
Cu597      Cu  0.02774580  0.08683792  0.34876389     1.04600
Cu598      Cu  0.03662496  0.05761436  0.36492286     1.04300
C599        C  0.03986360  0.09226754  0.38868496     0.93700
C600        C  0.02470882  0.05262788  0.32446242     0.92800
C601        C  0.99626762  0.06817695  0.36999169     0.85000
C602        C  0.06879527  0.07656222  0.34585277     0.91200
O603        O  0.85113831  0.01148424  0.45164054    -0.72500
O604        O  0.83281844  0.06716976  0.44265639    -0.73500
O605        O  0.86592404  0.04503086  0.43168249    -0.62100
O606        O  0.81719206  0.03373462  0.46170845    -0.70500
O607        O  0.83183964  0.04252431  0.48910901    -0.70100
O608        O  0.88108999  0.05391950  0.45878098    -0.61300
O609        O  0.84779306  0.07576502  0.46993532    -0.73800
O610        O  0.86598954  0.02154418  0.47850857    -0.72600
Cu611      Cu  0.84119328  0.03897048  0.44598440     1.04600
Cu612      Cu  0.85708406  0.04873608  0.47505796     1.04300
C613        C  0.86206538  0.00812039  0.46637339     0.93700
C614        C  0.83787108  0.08026202  0.45492229     0.92800
C615        C  0.88112339  0.05121454  0.44035811     0.85000
C616        C  0.81671163  0.03649402  0.48005261     0.91200
O617        O  0.96365989  0.86099486  0.45800182    -0.72500
O618        O  0.97134437  0.87944559  0.51219785    -0.73500
O619        O  0.98292944  0.84533473  0.49096583    -0.62100
O620        O  0.95189657  0.89397193  0.47981772    -0.70500
O621        O  0.92479323  0.87830833  0.48791171    -0.70100
O622        O  0.95581309  0.83035735  0.50014950    -0.61300
O623        O  0.94426238  0.86459132  0.52178572    -0.73800
O624        O  0.93690305  0.84498221  0.46651375    -0.72600
Cu625      Cu  0.96844527  0.87033483  0.48497335     1.04600
Cu626      Cu  0.93953361  0.85393256  0.49448252     1.04300
C627        C  0.94910519  0.85040380  0.45352245     0.93700
C628        C  0.95856603  0.87604396  0.52520054     0.92800
C629        C  0.97409518  0.83002904  0.49690386     0.85000
C630        C  0.93345255  0.89375316  0.48230262     0.91200
O631        O  0.02906679  0.19820374  0.53214605    -0.72500
O632        O  0.05940819  0.14976163  0.54659602    -0.73500
O633        O  0.04616469  0.18342610  0.56673363    -0.62100
O634        O  0.04181904  0.16364317  0.51273487    -0.70500
O635        O  0.06938115  0.17847025  0.50450206    -0.70100
O636        O  0.07365531  0.19883779  0.55950285    -0.61300
O637        O  0.08692554  0.16520478  0.53957567    -0.73800
O638        O  0.05688772  0.21285968  0.52469825    -0.72600
Cu639      Cu  0.04310567  0.17333752  0.53979738     1.04600
Cu640      Cu  0.07264306  0.18943837  0.53173244     1.04300
C641        C  0.03841725  0.21331790  0.52653580     0.93700
C642        C  0.07798141  0.14990348  0.54511171     0.92800
C643        C  0.06056768  0.19394626  0.57180609     0.85000
C644        C  0.05518190  0.16713811  0.50039684     0.91200
O645        O  0.14900655  0.02412753  0.54483148    -0.72500
O646        O  0.16794550  0.96977716  0.55114581    -0.73500
O647        O  0.13480125  0.99088914  0.56379110    -0.62100
O648        O  0.18328226  0.00353365  0.53242070    -0.70500
O649        O  0.19827159  0.01175335  0.55980114    -0.70100
O650        O  0.15050825  0.99871176  0.59090825    -0.61300
O651        O  0.18364006  0.97782470  0.57820726    -0.73800
O652        O  0.16413884  0.03328264  0.57185704    -0.72600
Cu653      Cu  0.15833542  0.99684255  0.54705026     1.04600
Cu654      Cu  0.17474896  0.00578895  0.57608988     1.04300
C655        C  0.15273017  0.03704015  0.55759634     0.93700
C656        C  0.17828721  0.96503235  0.56579482     0.92800
C657        C  0.13516316  0.99276416  0.58231468     0.85000
C658        C  0.19860667  0.00917026  0.54141219     0.91200
O659        O  0.98613446  0.00059199  0.68524957    -0.72500
O660        O  0.97450115  0.96912143  0.63662387    -0.73500
O661        O  0.95337314  0.98060622  0.66995597    -0.62100
O662        O  0.00712790  0.98947818  0.65077764    -0.70500
O663        O  0.01770185  0.96291057  0.66578572    -0.70100
O664        O  0.96250416  0.95364863  0.68524859    -0.61300
O665        O  0.98414240  0.94244620  0.65208665    -0.73800
O666        O  0.99553051  0.97347048  0.70004763    -0.72600
Cu667      Cu  0.98004312  0.98593980  0.66021325     1.04600
Cu668      Cu  0.99043320  0.95723593  0.67637611     1.04300
C669        C  0.99201383  0.99169149  0.70054213     0.93700
C670        C  0.97724624  0.95070221  0.63695788     0.92800
C671        C  0.94923060  0.96566011  0.68013908     0.85000
C672        C  0.02070906  0.97738419  0.65440425     0.91200
O673        O  0.73177861  0.63193757  0.83650100    -0.72500
O674        O  0.74318975  0.58387282  0.80545543    -0.73500
O675        O  0.76540784  0.61753836  0.81670964    -0.62100
O676        O  0.71015307  0.59878992  0.82462212    -0.70500
O677        O  0.70140243  0.61455010  0.79780394    -0.70100
O678        O  0.75591282  0.63276213  0.78983127    -0.61300
O679        O  0.73430750  0.59880522  0.77823366    -0.73800
O680        O  0.72340782  0.64760262  0.80951086    -0.72600
Cu681      Cu  0.73803298  0.60746696  0.82172068     1.04600
Cu682      Cu  0.72849619  0.62388959  0.79284947     1.04300
C683        C  0.72588292  0.64734016  0.82796327     0.93700
C684        C  0.73991307  0.58345508  0.78717951     0.92800
C685        C  0.76904889  0.62875895  0.80228148     0.85000
C686        C  0.69708524  0.60398432  0.81246128     0.91200
O687        O  0.93322881  0.70070090  0.80641522    -0.72500
O688        O  0.91708060  0.70265039  0.74999447    -0.73500
O689        O  0.95048279  0.71540052  0.77205064    -0.62100
O690        O  0.90071297  0.68759095  0.78478579    -0.70500
O691        O  0.88556689  0.71600261  0.78763073    -0.70100
O692        O  0.93631584  0.74368094  0.77868137    -0.61300
O693        O  0.90470949  0.73210235  0.75497820    -0.73800
O694        O  0.91690889  0.72810697  0.81163864    -0.72600
Cu695      Cu  0.92594889  0.70059192  0.77806054     1.04600
Cu696      Cu  0.91041334  0.73097594  0.78339307     1.04300
C697        C  0.92711738  0.71394735  0.81795583     0.93700
C698        C  0.90816539  0.71775729  0.74375258     0.92800
C699        C  0.95141303  0.73386000  0.77406580     0.85000
C700        C  0.88525453  0.69739532  0.78784780     0.91200
O701        O  0.56905529  0.82244713  0.74908492    -0.72500
O702        O  0.61820022  0.85148661  0.73684923    -0.73500
O703        O  0.58509105  0.83986008  0.71532932    -0.62100
O704        O  0.60288846  0.83336791  0.77105962    -0.70500
O705        O  0.61689710  0.80558736  0.76224148    -0.70100
O706        O  0.60038043  0.81240313  0.70770579    -0.61300
O707        O  0.63315062  0.82377527  0.72958616    -0.73800
O708        O  0.58318663  0.79458285  0.74088412    -0.72600
Cu709      Cu  0.59323346  0.83775326  0.74343024     1.04600
Cu710      Cu  0.60880822  0.80808774  0.73488170     1.04300
C711        C  0.56817691  0.80406631  0.74653982     0.93700
C712        C  0.63336754  0.84232096  0.73129300     0.92800
C713        C  0.59044605  0.82723038  0.70275278     0.85000
C714        C  0.61336166  0.81848749  0.77504025     0.91200
O715        O  0.70490767  0.80496781  0.88720301    -0.72500
O716        O  0.73702842  0.79329350  0.93513253    -0.73500
O717        O  0.72511216  0.77247037  0.90072531    -0.62100
O718        O  0.71690487  0.82644953  0.92050687    -0.70500
O719        O  0.69060563  0.81697851  0.93674591    -0.70100
O720        O  0.69826432  0.76235277  0.91563237    -0.61300
O721        O  0.71005397  0.78330806  0.94984970    -0.73800
O722        O  0.67811191  0.79636410  0.90315428    -0.72600
Cu723      Cu  0.72197390  0.79961145  0.91042907     1.04600
Cu724      Cu  0.69337600  0.78935414  0.92693383     1.04300
C725        C  0.68648710  0.80235695  0.88771999     0.93700
C726        C  0.72828513  0.78677949  0.95025450     0.92800
C727        C  0.71262028  0.75918656  0.90415900     0.85000
C728        C  0.70256783  0.83031794  0.93165242     0.91200
O729        O  0.80788361  0.75794137  0.57188620    -0.72500
O730        O  0.84164935  0.74894564  0.61815526    -0.73500
O731        O  0.82929664  0.72566956  0.58609646    -0.62100
O732        O  0.81960377  0.78104442  0.60451853    -0.70500
O733        O  0.79499704  0.76983030  0.62225930    -0.70100
O734        O  0.80257197  0.71670165  0.60192675    -0.61300
O735        O  0.81641051  0.73695484  0.63443504    -0.73800
O736        O  0.78155860  0.74952162  0.58866316    -0.72600
Cu737      Cu  0.82548674  0.75382398  0.59449439     1.04600
Cu738      Cu  0.79794308  0.74298476  0.61233896     1.04300
C739        C  0.78958279  0.75507417  0.57278677     0.93700
C740        C  0.83451695  0.74114972  0.63342338     0.92800
C741        C  0.81729591  0.71246976  0.59150481     0.85000
C742        C  0.80608858  0.78373730  0.61707226     0.91200
O743        O  0.77969943  0.94595111  0.73850799    -0.72500
O744        O  0.79183105  0.89693846  0.70817130    -0.73500
O745        O  0.81351533  0.92961836  0.72055042    -0.62100
O746        O  0.75873758  0.91191922  0.72617038    -0.70500
O747        O  0.75036650  0.92669486  0.69866243    -0.70100
O748        O  0.80605005  0.94542201  0.69336363    -0.61300
O749        O  0.78493529  0.91247607  0.68067349    -0.73800
O750        O  0.77187400  0.96063836  0.71083364    -0.72600
Cu751      Cu  0.78616966  0.92071547  0.72437457     1.04600
Cu752      Cu  0.77796458  0.93693603  0.69497311     1.04300
C753        C  0.77415374  0.96115565  0.72925028     0.93700
C754        C  0.79022298  0.89710786  0.68963094     0.92800
C755        C  0.81860008  0.93981221  0.70589732     0.85000
C756        C  0.74624822  0.91545706  0.71295947     0.91200
O757        O  0.20674397  0.78762790  0.57294289    -0.72500
O758        O  0.17804835  0.79981637  0.62231204    -0.73500
O759        O  0.18850862  0.82127656  0.58862395    -0.62100
O760        O  0.19700996  0.76604181  0.60762267    -0.70500
O761        O  0.22459683  0.77561224  0.62148804    -0.70100
O762        O  0.21594401  0.82971315  0.60344321    -0.61300
O763        O  0.20564792  0.80802131  0.63695267    -0.73800
O764        O  0.23456133  0.79662553  0.58660188    -0.72600
Cu765      Cu  0.19165242  0.79329411  0.59731195     1.04600
Cu766      Cu  0.22121396  0.80276540  0.61247285     1.04300
C767        C  0.22502617  0.79066719  0.57172086     0.93700
C768        C  0.18718035  0.80563634  0.63738008     0.92800
C769        C  0.20086370  0.83425559  0.59367005     0.85000
C770        C  0.21181668  0.76257866  0.61838877     0.91200
O771        O  0.26650207  0.61830428  0.70061614    -0.72500
O772        O  0.21116112  0.59990307  0.69192547    -0.73500
O773        O  0.23316746  0.63326587  0.68113968    -0.62100
O774        O  0.24423658  0.58428121  0.71091127    -0.70500
O775        O  0.23492966  0.59863192  0.73831605    -0.70100
O776        O  0.22468545  0.64821858  0.70852015    -0.61300
O777        O  0.20237829  0.61519831  0.71901588    -0.73800
O778        O  0.25668418  0.63269222  0.72786550    -0.72600
Cu779      Cu  0.23915005  0.60835088  0.69520704     1.04600
Cu780      Cu  0.22938807  0.62407518  0.72441544     1.04300
C781        C  0.26989043  0.62922560  0.71531900     0.93700
C782        C  0.19805361  0.60505793  0.70410169     0.92800
C783        C  0.22745636  0.64848798  0.69012541     0.85000
C784        C  0.24085747  0.58352598  0.72917152     0.91200
O785        O  0.28063762  0.75072047  0.93787344    -0.72500
O786        O  0.31120080  0.73642895  0.88965816    -0.73500
O787        O  0.29823317  0.71624217  0.92309427    -0.62100
O788        O  0.29338078  0.77040202  0.90333028    -0.70500
O789        O  0.32065559  0.77900529  0.91837400    -0.70100
O790        O  0.32572135  0.72363674  0.93835634    -0.61300
O791        O  0.33863865  0.74396357  0.90496810    -0.73800
O792        O  0.30832805  0.75826703  0.95266952    -0.72600
Cu793      Cu  0.29486105  0.74323701  0.91306626     1.04600
Cu794      Cu  0.32425917  0.75159680  0.92918869     1.04300
C795        C  0.28987409  0.75629767  0.95305867     0.93700
C796        C  0.32975548  0.73789434  0.88985438     0.92800
C797        C  0.31282914  0.71117161  0.93335481     0.85000
C798        C  0.30649076  0.78299421  0.90695475     0.91200
O799        O  0.41742195  0.72922583  0.71104255    -0.72500
O800        O  0.40076716  0.73432258  0.76595472    -0.73500
O801        O  0.43415993  0.74702229  0.74436239    -0.62100
O802        O  0.38512694  0.71637771  0.73313099    -0.70500
O803        O  0.40089913  0.68900404  0.73990932    -0.70100
O804        O  0.44922589  0.71941132  0.75166833    -0.61300
O805        O  0.41591781  0.70691902  0.77401381    -0.73800
O806        O  0.43335954  0.70193827  0.71778203    -0.72600
Cu807      Cu  0.40895702  0.73274149  0.73842660     1.04600
Cu808      Cu  0.42549590  0.70340045  0.74617049     1.04300
C809        C  0.42760694  0.71473605  0.70554561     0.93700
C810        C  0.40460348  0.72108035  0.77832519     0.92800
C811        C  0.44956382  0.73785069  0.74939855     0.85000
C812        C  0.38538484  0.69784159  0.73481602     0.91200
O813        O  0.08378142  0.83976496  0.81024617    -0.72500
O814        O  0.10157540  0.83284070  0.75432975    -0.73500
O815        O  0.06836824  0.82075056  0.77696678    -0.62100
O816        O  0.11619070  0.85224981  0.78790584    -0.70500
O817        O  0.13213586  0.82536512  0.79609985    -0.70100
O818        O  0.08388641  0.79360224  0.78503219    -0.61300
O819        O  0.11737563  0.80617299  0.76349246    -0.73800
O820        O  0.09976618  0.81283027  0.81817799    -0.72600
Cu821      Cu  0.09182319  0.83729941  0.78199368     1.04600
Cu822      Cu  0.10870748  0.80850133  0.79093568     1.04300
C823        C  0.08949583  0.82750013  0.82303531     0.93700
C824        C  0.11323993  0.81879904  0.75057244     0.92800
C825        C  0.06838682  0.80235487  0.77959559     0.85000
C826        C  0.13167492  0.84381447  0.79373648     0.91200
O827        O  0.28342087  0.91293607  0.84562307    -0.72500
O828        O  0.27033351  0.96097744  0.81553114    -0.73500
O829        O  0.24914625  0.92647378  0.82673360    -0.62100
O830        O  0.30421382  0.94645238  0.83387101    -0.70500
O831        O  0.31274215  0.93142886  0.80654637    -0.70100
O832        O  0.25876279  0.91173658  0.79961311    -0.61300
O833        O  0.27900599  0.94663004  0.78792396    -0.73800
O834        O  0.29213729  0.89786180  0.81839067    -0.72600
Cu835      Cu  0.27636938  0.93729636  0.83133469     1.04600
Cu836      Cu  0.28588949  0.92150720  0.80209194     1.04300
C837        C  0.28989104  0.89789416  0.83687105     0.93700
C838        C  0.27318925  0.96172230  0.79719355     0.92800
C839        C  0.24574245  0.91506375  0.81240471     0.85000
C840        C  0.31718294  0.94156135  0.82142440     0.91200
O841        O  0.11630930  0.68711712  0.28655870    -0.72500
O842        O  0.06650551  0.71464754  0.27315201    -0.73500
O843        O  0.10070401  0.70231041  0.25151632    -0.62100
O844        O  0.08319215  0.69948247  0.30762911    -0.70500
O845        O  0.09880203  0.72714692  0.31360401    -0.70100
O846        O  0.11310714  0.73158267  0.25735831    -0.61300
O847        O  0.08044105  0.74298010  0.27999372    -0.73800
O848        O  0.13105786  0.71557912  0.29073596    -0.72600
Cu849      Cu  0.09112097  0.69991027  0.27940637     1.04600
Cu850      Cu  0.10628785  0.73033422  0.28556863     1.04300
C851        C  0.13148832  0.69697896  0.29067656     0.93700
C852        C  0.06542202  0.73310165  0.27519730     0.92800
C853        C  0.10997439  0.71742226  0.24579134     0.85000
C854        C  0.08882176  0.71262761  0.31951924     0.91200
O855        O  0.24982313  0.61572540  0.32367746    -0.72500
O856        O  0.30544686  0.59739453  0.32928915    -0.73500
O857        O  0.28390195  0.63023120  0.34218429    -0.62100
O858        O  0.27169629  0.58201008  0.31146047    -0.70500
O859        O  0.27954302  0.59707725  0.28398744    -0.70100
O860        O  0.29138006  0.64591979  0.31493117    -0.61300
O861        O  0.31301001  0.61319885  0.30210255    -0.73800
O862        O  0.25848195  0.63100865  0.29650953    -0.72600
Cu863      Cu  0.27737145  0.60572131  0.32757024     1.04600
Cu864      Cu  0.28582765  0.62222751  0.29838102     1.04300
C865        C  0.24585115  0.62714659  0.30950662     0.93700
C866        C  0.31797994  0.60281573  0.31661554     0.92800
C867        C  0.28932710  0.64570332  0.33344945     0.85000
C868        C  0.27423895  0.58166501  0.29305365     0.91200
O869        O  0.23612219  0.75072471  0.08895818    -0.72500
O870        O  0.20381637  0.73697153  0.13660797    -0.73500
O871        O  0.21567351  0.71745821  0.10255660    -0.62100
O872        O  0.22474359  0.77037970  0.12430888    -0.70500
O873        O  0.19941876  0.78211069  0.10808104    -0.70100
O874        O  0.18843436  0.72730052  0.08830241    -0.61300
O875        O  0.17802567  0.74962307  0.12183945    -0.73800
O876        O  0.20913414  0.76002727  0.07388748    -0.72600
Cu877      Cu  0.22108295  0.74360246  0.11356863     1.04600
Cu878      Cu  0.19286290  0.75519985  0.09746219     1.04300
C879        C  0.22739055  0.75680345  0.07363820     0.93700
C880        C  0.18573458  0.74138512  0.13656738     0.92800
C881        C  0.20052580  0.71375746  0.09253416     0.85000
C882        C  0.21341074  0.78447406  0.12014582     0.91200
O883        O  0.30681826  0.78677950  0.45035821    -0.72500
O884        O  0.33698960  0.79734306  0.40174907    -0.73500
O885        O  0.32525408  0.81977926  0.43413440    -0.62100
O886        O  0.31776569  0.76374202  0.41701220    -0.70500
O887        O  0.29060525  0.77276448  0.40202508    -0.70100
O888        O  0.29809033  0.82767475  0.41853634    -0.61300
O889        O  0.30977087  0.80507293  0.38615382    -0.73800
O890        O  0.27922980  0.79492372  0.43572382    -0.72600
Cu891      Cu  0.32261319  0.79152423  0.42639796     1.04600
Cu892      Cu  0.29341251  0.80033236  0.41017458     1.04300
C893        C  0.28850256  0.78973441  0.45103864     0.93700
C894        C  0.32826559  0.80297961  0.38638180     0.92800
C895        C  0.31287861  0.83253308  0.42860885     0.85000
C896        C  0.30324942  0.75982176  0.40600105     0.91200
O897        O  0.42901532  0.79613228  0.23798055    -0.72500
O898        O  0.38017082  0.82644849  0.22631390    -0.73500
O899        O  0.41271468  0.81435893  0.20470038    -0.62100
O900        O  0.39539054  0.80770114  0.25898150    -0.70500
O901        O  0.40969256  0.83520989  0.26813996    -0.70100
O902        O  0.42853626  0.84147534  0.21243903    -0.61300
O903        O  0.39564716  0.85386387  0.23372252    -0.73800
O904        O  0.44338875  0.82377392  0.24657969    -0.72600
Cu905      Cu  0.40390368  0.81017402  0.23175660     1.04600
Cu906      Cu  0.41993234  0.83953200  0.24057735     1.04300
C907        C  0.44398384  0.80541512  0.24399991     0.93700
C908        C  0.38039862  0.84498102  0.22804688     0.92800
C909        C  0.42297209  0.82898290  0.19979264     0.85000
C910        C  0.39886683  0.82049998  0.27190105     0.91200
O911        O  0.24220994  0.96504826  0.21101277    -0.72500
O912        O  0.23217998  0.91632459  0.18048515    -0.73500
O913        O  0.20946595  0.94890170  0.19174570    -0.62100
O914        O  0.26528971  0.93163699  0.20018132    -0.70500
O915        O  0.25588961  0.91661499  0.22724425    -0.70100
O916        O  0.20131328  0.93322331  0.21882379    -0.61300
O917        O  0.22410039  0.90079837  0.20767149    -0.73800
O918        O  0.23370084  0.95007916  0.23836067    -0.72600
Cu919      Cu  0.23768439  0.94111296  0.19495239     1.04600
Cu920      Cu  0.22848460  0.92478448  0.22401930     1.04300
C921        C  0.23911306  0.96545479  0.22932041     0.93700
C922        C  0.22666336  0.90088497  0.18924107     0.92800
C923        C  0.19657706  0.94320788  0.20393522     0.85000
C924        C  0.26892612  0.92045743  0.21464253     0.91200
O925        O  0.56658910  0.22592892  0.77620242    -0.72500
O926        O  0.61490117  0.19578848  0.78788781    -0.73500
O927        O  0.58242453  0.20865352  0.81000978    -0.62100
O928        O  0.59978062  0.21375531  0.75365827    -0.70500
O929        O  0.61471113  0.24135169  0.76140991    -0.70100
O930        O  0.59854992  0.23576905  0.81697184    -0.61300
O931        O  0.63078532  0.22321214  0.79421279    -0.73800
O932        O  0.58131879  0.25368204  0.78367423    -0.72600
Cu933      Cu  0.59031570  0.21013304  0.78161324     1.04600
Cu934      Cu  0.60677055  0.23952994  0.78927045     1.04300
C935        C  0.56599881  0.24431533  0.77868705     0.93700
C936        C  0.63048378  0.20464693  0.79268471     0.92800
C937        C  0.58823572  0.22129900  0.82238040     0.85000
C938        C  0.61078356  0.22808704  0.74904969     0.91200
O939        O  0.70083774  0.43337449  0.71370901    -0.72500
O940        O  0.75548429  0.41503140  0.71893771    -0.73500
O941        O  0.73482861  0.44934705  0.73087046    -0.62100
O942        O  0.72221453  0.40008363  0.70158073    -0.70500
O943        O  0.72895050  0.41513266  0.67374819    -0.70100
O944        O  0.74259556  0.46367382  0.70296312    -0.61300
O945        O  0.76385766  0.42924069  0.69112824    -0.73800
O946        O  0.70806355  0.44864070  0.68615387    -0.72600
Cu947      Cu  0.72812341  0.42407695  0.71727097     1.04600
Cu948      Cu  0.73621102  0.43977657  0.68754456     1.04300
C949        C  0.69565458  0.44360850  0.69913511     0.93700
C950        C  0.76795612  0.41819044  0.70559008     0.92800
C951        C  0.74019591  0.46444235  0.72137047     0.85000
C952        C  0.72384237  0.39990065  0.68305220     0.91200
O953        O  0.68239429  0.22607937  0.58456639    -0.72500
O954        O  0.69245158  0.28166343  0.60226345    -0.73500
O955        O  0.70245758  0.25843082  0.56874065    -0.62100
O956        O  0.67149402  0.24908261  0.61735127    -0.70500
O957        O  0.69824874  0.23979814  0.63285471    -0.70100
O958        O  0.72955867  0.24943970  0.58381624    -0.61300
O959        O  0.71905192  0.27140607  0.61745319    -0.73800
O960        O  0.70938308  0.21747893  0.60007074    -0.72600
Cu961      Cu  0.68626959  0.25424354  0.59264353     1.04600
Cu962      Cu  0.71500189  0.24424073  0.60899976     1.04300
C963        C  0.69456736  0.21302922  0.58987315     0.93700
C964        C  0.70714763  0.28494018  0.61326596     0.92800
C965        C  0.72068634  0.25496918  0.56839652     0.85000
C966        C  0.67989584  0.24295573  0.63273769     0.91200
O967        O  0.77735069  0.09785631  0.78162275    -0.72500
O968        O  0.78764515  0.14657190  0.81344390    -0.73500
O969        O  0.81001725  0.11346664  0.80191223    -0.62100
O970        O  0.75584634  0.13212694  0.79279990    -0.70500
O971        O  0.74551730  0.11705894  0.81947234    -0.70100
O972        O  0.80068104  0.09749264  0.82840668    -0.61300
O973        O  0.77874677  0.13063497  0.84013876    -0.73800
O974        O  0.76763609  0.08299202  0.80861518    -0.72600
Cu975      Cu  0.78303845  0.12293951  0.79645710     1.04600
Cu976      Cu  0.77274201  0.10644293  0.82503405     1.04300
C977        C  0.77123649  0.08257203  0.79041769     0.93700
C978        C  0.78453957  0.14617007  0.83180944     0.92800
C979        C  0.81404886  0.10275420  0.81651763     0.85000
C980        C  0.74242528  0.12852320  0.80508161     0.91200
O981        O  0.87975764  0.32595345  0.72636594    -0.72500
O982        O  0.92891124  0.29579403  0.73884342    -0.73500
O983        O  0.89446494  0.30737812  0.75949915    -0.62100
O984        O  0.91305138  0.31400531  0.70504472    -0.70500
O985        O  0.92846170  0.34122494  0.71314613    -0.70100
O986        O  0.90897145  0.33475704  0.76868327    -0.61300
O987        O  0.94335012  0.32339349  0.74736034    -0.73800
O988        O  0.89498897  0.35335852  0.73417008    -0.72600
Cu989      Cu  0.90364261  0.30978025  0.73220180     1.04600
Cu990      Cu  0.91952894  0.33911058  0.74120664     1.04300
C991        C  0.87978265  0.34448373  0.72828299     0.93700
C992        C  0.94399645  0.30501972  0.74477346     0.92800
C993        C  0.89788709  0.32022055  0.77241103     0.85000
C994        C  0.92333618  0.32870460  0.70032864     0.91200
O995        O  0.83400093  0.29566013  0.90106112    -0.72500
O996        O  0.80425750  0.28490769  0.95012139    -0.73500
O997        O  0.81387399  0.26240227  0.91610870    -0.62100
O998        O  0.82346927  0.31772068  0.93428837    -0.70500
O999        O  0.79631964  0.32663488  0.91919908    -0.70100
O1000       O  0.78662261  0.27250046  0.90200411    -0.61300
O1001       O  0.77675045  0.29423303  0.93602218    -0.73800
O1002       O  0.80670668  0.30433760  0.88613736    -0.72600
Cu1003     Cu  0.81983138  0.28976094  0.92595999     1.04600
Cu1004     Cu  0.79061972  0.29972210  0.91042702     1.04300
C1005       C  0.82514148  0.30166461  0.88589991     0.93700
C1006       C  0.78602356  0.28823189  0.95103389     0.92800
C1007       C  0.79885065  0.25906856  0.90558658     0.85000
C1008       C  0.81135577  0.33088347  0.92913918     0.91200
O1009       O  0.25635104  0.13118128  0.73215711    -0.72500
O1010       O  0.31081493  0.11359119  0.72205384    -0.73500
O1011       O  0.28831952  0.14666928  0.71187575    -0.62100
O1012       O  0.27839900  0.09690891  0.74214713    -0.70500
O1013       O  0.26851621  0.08279088  0.71485135    -0.70100
O1014       O  0.27946156  0.13152699  0.68474817    -0.61300
O1015       O  0.30134175  0.09825351  0.69524951    -0.73800
O1016       O  0.24608025  0.11702763  0.70501620    -0.72600
Cu1017     Cu  0.28375140  0.12248978  0.72807012     1.04600
Cu1018     Cu  0.27342053  0.10682583  0.69908402     1.04300
C1019       C  0.24286522  0.12786884  0.71984845     0.93700
C1020       C  0.31480047  0.10350314  0.70699327     0.92800
C1021       C  0.28559231  0.14673308  0.69346103     0.85000
C1022       C  0.27231448  0.08184606  0.73300389     0.91200
O1023       O  0.08016755  0.25089643  0.74070168    -0.72500
O1024       O  0.12851048  0.21878842  0.72907952    -0.73500
O1025       O  0.09584593  0.23194704  0.70735137    -0.62100
O1026       O  0.11387668  0.23775956  0.76179706    -0.70500
O1027       O  0.09831217  0.21072157  0.77036912    -0.70100
O1028       O  0.07913832  0.20533757  0.71499367    -0.61300
O1029       O  0.11213403  0.19183358  0.73610996    -0.73800
O1030       O  0.06468052  0.22374141  0.74882507    -0.72600
Cu1031     Cu  0.10503591  0.23584118  0.73447638     1.04600
Cu1032     Cu  0.08793187  0.20701474  0.74293248     1.04300
C1033       C  0.06464388  0.24214070  0.74622165     0.93700
C1034       C  0.12788143  0.20026400  0.73093068     0.92800
C1035       C  0.08492477  0.21778179  0.70243110     0.85000
C1036       C  0.10996904  0.22469641  0.77434551     0.91200
O1037       O  0.31509473  0.26530643  0.61198010    -0.72500
O1038       O  0.32334998  0.32004547  0.59127752    -0.73500
O1039       O  0.33523419  0.29941505  0.62492345    -0.62100
O1040       O  0.30406939  0.28641012  0.57760647    -0.70500
O1041       O  0.27690365  0.29617416  0.59212904    -0.70100
O1042       O  0.30830477  0.30823789  0.64048578    -0.61300
O1043       O  0.29666424  0.32931979  0.60699470    -0.73800
O1044       O  0.28818657  0.27558296  0.62664604    -0.72600
Cu1045     Cu  0.32034065  0.29236884  0.60087543     1.04600
Cu1046     Cu  0.29153034  0.30261862  0.61701098     1.04300
C1047       C  0.30052670  0.26218019  0.62319985     0.93700
C1048       C  0.31128475  0.33331372  0.59629593     0.92800
C1049       C  0.32675787  0.30583295  0.64014481     0.85000
C1050       C  0.28583322  0.28974786  0.57707466     0.91200
O1051       O  0.39603561  0.30878172  0.76644206    -0.72500
O1052       O  0.41434061  0.31445979  0.82083045    -0.73500
O1053       O  0.38119697  0.32659242  0.79989106    -0.62100
O1054       O  0.43048364  0.29707309  0.78686130    -0.70500
O1055       O  0.44446679  0.32508298  0.77884961    -0.70100
O1056       O  0.39624379  0.35420600  0.79233815    -0.61300
O1057       O  0.42947214  0.34201367  0.81326855    -0.73800
O1058       O  0.41019546  0.33647084  0.75761721    -0.72600
Cu1059     Cu  0.40511191  0.31069524  0.79370625     1.04600
Cu1060     Cu  0.42068583  0.34036521  0.78516043     1.04300
C1061       C  0.39915929  0.32194922  0.75376097     0.93700
C1062       C  0.42437516  0.32922374  0.82583092     0.92800
C1063       C  0.38115988  0.34514051  0.79818314     0.85000
C1064       C  0.44542536  0.30671120  0.78124849     0.91200
O1065       O  0.20861144  0.44783935  0.83078418    -0.72500
O1066       O  0.26452124  0.43050406  0.82581637    -0.73500
O1067       O  0.24218654  0.46384725  0.81347858    -0.62100
O1068       O  0.23021399  0.41527305  0.84375778    -0.70500
O1069       O  0.22388431  0.39952316  0.81626933    -0.70100
O1070       O  0.23490462  0.44894640  0.78577570    -0.61300
O1071       O  0.25667002  0.41551188  0.79825951    -0.73800
O1072       O  0.20162941  0.43185507  0.80356262    -0.72600
Cu1073     Cu  0.23673362  0.43997944  0.82937334     1.04600
Cu1074     Cu  0.22908279  0.42353360  0.79994915     1.04300
C1075       C  0.19632346  0.44213248  0.81806086     0.93700
C1076       C  0.26896649  0.41939486  0.81154191     0.92800
C1077       C  0.23978071  0.46435297  0.79506315     0.85000
C1078       C  0.22521830  0.39975548  0.83484035     0.91200
O1079       O  0.22123327  0.27088531  0.90176983    -0.72500
O1080       O  0.21300813  0.21684870  0.92038137    -0.73500
O1081       O  0.20195734  0.23816147  0.88705862    -0.62100
O1082       O  0.23206394  0.24993536  0.93628576    -0.70500
O1083       O  0.20454717  0.25904638  0.95052427    -0.70100
O1084       O  0.17456182  0.24656594  0.90201235    -0.61300
O1085       O  0.18583546  0.22535477  0.93567110    -0.73800
O1086       O  0.19389721  0.28070811  0.91589938    -0.72600
Cu1087     Cu  0.21804215  0.24370930  0.91097521     1.04600
Cu1088     Cu  0.18877765  0.25334195  0.92661090     1.04300
C1089       C  0.20861441  0.28410029  0.90492939     0.93700
C1090       C  0.19816901  0.21236153  0.93057397     0.92800
C1091       C  0.18348542  0.24042330  0.88692617     0.85000
C1092       C  0.22283390  0.25586753  0.95135547     0.91200
O1093       O  0.29055265  0.27037828  0.11951512    -0.72500
O1094       O  0.29848499  0.21561461  0.10286093    -0.73500
O1095       O  0.30979976  0.23824411  0.13544062    -0.62100
O1096       O  0.27925523  0.24836603  0.08593061    -0.70500
O1097       O  0.30671117  0.25701851  0.07128469    -0.70100
O1098       O  0.33712200  0.24579871  0.11990564    -0.61300
O1099       O  0.32546580  0.22376996  0.08702429    -0.73800
O1100       O  0.31789387  0.27949131  0.10485182    -0.72600
Cu1101     Cu  0.29352166  0.24288622  0.11135007     1.04600
Cu1102     Cu  0.32270447  0.25189091  0.09516214     1.04300
C1103       C  0.30328296  0.28333782  0.11575812     0.93700
C1104       C  0.31328892  0.21088787  0.09270437     0.92800
C1105       C  0.32829507  0.24040594  0.13534435     0.85000
C1106       C  0.28837670  0.25404845  0.07069024     0.91200
O1107       O  0.27872020  0.44805915  0.23354485    -0.72500
O1108       O  0.28941592  0.39953292  0.20197364    -0.73500
O1109       O  0.31191166  0.43125261  0.21550907    -0.62100
O1110       O  0.25659180  0.41527274  0.22003019    -0.70500
O1111       O  0.24925571  0.43069711  0.19256670    -0.70100
O1112       O  0.30532899  0.44810138  0.18871313    -0.61300
O1113       O  0.28364626  0.41586056  0.17468808    -0.73800
O1114       O  0.27153470  0.46367719  0.20621416    -0.72600
Cu1115     Cu  0.28434018  0.42306515  0.21874756     1.04600
Cu1116     Cu  0.27711121  0.44022830  0.18962645     1.04300
C1117       C  0.27390848  0.46370570  0.22465818     0.93700
C1118       C  0.28828692  0.40012225  0.18341216     0.92800
C1119       C  0.31744140  0.44200103  0.20144025     0.85000
C1120       C  0.24449307  0.41948159  0.20665867     0.91200
O1121       O  0.24578373  0.08523065  0.31105685    -0.72500
O1122       O  0.23512555  0.13140119  0.34429803    -0.73500
O1123       O  0.21275611  0.09877474  0.33178693    -0.62100
O1124       O  0.26801408  0.11887273  0.32301621    -0.70500
O1125       O  0.25675320  0.13595324  0.29804417    -0.70100
O1126       O  0.20335186  0.11455349  0.30522917    -0.61300
O1127       O  0.22330841  0.14761721  0.31896076    -0.73800
O1128       O  0.23661250  0.10139734  0.28464539    -0.72600
Cu1129     Cu  0.24083959  0.10792671  0.32838466     1.04600
Cu1130     Cu  0.22977045  0.12538241  0.30073481     1.04300
C1131       C  0.24240739  0.08567224  0.29283356     0.93700
C1132       C  0.22739330  0.14663154  0.33708971     0.92800
C1133       C  0.19937341  0.10382185  0.31982812     0.85000
C1134       C  0.27059341  0.13159342  0.30961806     0.91200
O1135       O  0.43372764  0.25245518  0.28131198    -0.72500
O1136       O  0.38525501  0.22170284  0.29480650    -0.73500
O1137       O  0.41888954  0.23419303  0.31533387    -0.62100
O1138       O  0.39922438  0.24016915  0.26121860    -0.70500
O1139       O  0.41403208  0.21291948  0.25215204    -0.70100
O1140       O  0.43460196  0.20711090  0.30737993    -0.61300
O1141       O  0.40071188  0.19440160  0.28711510    -0.73800
O1142       O  0.44852884  0.22500705  0.27290091    -0.72600
Cu1143     Cu  0.40885643  0.23811480  0.28840076     1.04600
Cu1144     Cu  0.42505043  0.20892989  0.27949790     1.04300
C1145       C  0.44893539  0.24339406  0.27548393     0.93700
C1146       C  0.38543957  0.20316722  0.29308453     0.92800
C1147       C  0.42953175  0.21974903  0.32008388     0.85000
C1148       C  0.40271059  0.22725126  0.24838603     0.91200
O1149       O  0.10167125  0.31543304  0.20752191    -0.72500
O1150       O  0.12052403  0.30662982  0.26164969    -0.73500
O1151       O  0.08625519  0.29508051  0.24049289    -0.62100
O1152       O  0.13451605  0.32699964  0.22904137    -0.70500
O1153       O  0.11921084  0.35371736  0.23885128    -0.70100
O1154       O  0.07135938  0.32228708  0.24945697    -0.61300
O1155       O  0.10512509  0.33305172  0.27204208    -0.73800
O1156       O  0.08640746  0.34244448  0.21650411    -0.72600
Cu1157     Cu  0.11116541  0.31004637  0.23441627     1.04600
Cu1158     Cu  0.09489723  0.33874381  0.24464792     1.04300
C1159       C  0.09176122  0.33052484  0.20321721     0.93700
C1160       C  0.11662574  0.31870189  0.27518311     0.92800
C1161       C  0.07095780  0.30397887  0.24633290     0.85000
C1162       C  0.13431793  0.34538247  0.23202169     0.91200
O1163       O  0.23618267  0.29138855  0.44013840    -0.72500
O1164       O  0.20779124  0.30133005  0.38934113    -0.73500
O1165       O  0.22058051  0.32494338  0.42107970    -0.62100
O1166       O  0.22383766  0.26823431  0.40813545    -0.70500
O1167       O  0.19447424  0.26352789  0.42087081    -0.70100
O1168       O  0.19317488  0.31954581  0.43737156    -0.61300
O1169       O  0.17959249  0.29840773  0.40484481    -0.73800
O1170       O  0.20779957  0.28506115  0.45422825    -0.72600
Cu1171     Cu  0.22315091  0.29663466  0.41419438     1.04600
Cu1172     Cu  0.19283612  0.29139251  0.42990355     1.04300
C1173       C  0.22627583  0.28672134  0.45522138     0.93700
C1174       C  0.18915108  0.30164450  0.38925325     0.92800
C1175       C  0.20635334  0.33116274  0.43129780     0.85000
C1176       C  0.20933477  0.25720604  0.41164689     0.91200
O1177       O  0.71725934  0.32772624  0.10233549    -0.72500
O1178       O  0.72362221  0.27384267  0.12239487    -0.73500
O1179       O  0.73520111  0.29353406  0.08755625    -0.62100
O1180       O  0.70546372  0.30744904  0.13636242    -0.70500
O1181       O  0.67795475  0.29867798  0.12187038    -0.70100
O1182       O  0.70738922  0.28532588  0.07334425    -0.61300
O1183       O  0.69639290  0.26433960  0.10781831    -0.73800
O1184       O  0.68949228  0.31944935  0.08805224    -0.72600
Cu1185     Cu  0.72138543  0.30090146  0.11257380     1.04600
Cu1186     Cu  0.69186717  0.29159318  0.09720316     1.04300
C1187       C  0.70229995  0.33225330  0.09234957     0.93700
C1188       C  0.71087455  0.26082497  0.11898297     0.92800
C1189       C  0.72579467  0.28762488  0.07260841     0.85000
C1190       C  0.68701270  0.30502066  0.13677631     0.91200
O1191       O  0.63222095  0.32991710  0.29791157    -0.72500
O1192       O  0.58484502  0.29738387  0.28374001    -0.73500
O1193       O  0.61975331  0.31020308  0.26423816    -0.62100
O1194       O  0.59854326  0.31669417  0.31760552    -0.70500
O1195       O  0.58344706  0.34392529  0.30901110    -0.70100
O1196       O  0.60307715  0.33583845  0.25377677    -0.61300
O1197       O  0.56932749  0.32451528  0.27560432    -0.73800
O1198       O  0.61673815  0.35602388  0.28685526    -0.72600
Cu1199     Cu  0.60930803  0.31255316  0.29113809     1.04600
Cu1200     Cu  0.59255697  0.34097990  0.28094405     1.04300
C1201       C  0.63188521  0.34815209  0.29412997     0.93700
C1202       C  0.56936839  0.30614489  0.27811631     0.92800
C1203       C  0.61534107  0.32214333  0.25076992     0.85000
C1204       C  0.58808003  0.33136280  0.32197880     0.91200
O1205       O  0.76702386  0.11995663  0.20360587    -0.72500
O1206       O  0.71234751  0.09868215  0.19652791    -0.73500
O1207       O  0.73264642  0.13257607  0.18405711    -0.62100
O1208       O  0.74650450  0.08521280  0.21550253    -0.70500
O1209       O  0.73716076  0.10003883  0.24262902    -0.70100
O1210       O  0.72412652  0.14808290  0.21110998    -0.61300
O1211       O  0.70342419  0.11447536  0.22327462    -0.73800
O1212       O  0.75703371  0.13464581  0.23060287    -0.72600
Cu1213     Cu  0.74002405  0.10850122  0.19900167     1.04600
Cu1214     Cu  0.73013306  0.12472681  0.22786720     1.04300
C1215       C  0.77022751  0.13137057  0.21799012     0.93700
C1216       C  0.69923077  0.10372146  0.20875331     0.92800
C1217       C  0.72653116  0.14786157  0.19264982     0.85000
C1218       C  0.74363826  0.08491437  0.23386226     0.91200
O1219       O  0.91750723  0.23086772  0.20893420    -0.72500
O1220       O  0.90378766  0.23808519  0.26480389    -0.73500
O1221       O  0.93631362  0.24870888  0.24128171    -0.62100
O1222       O  0.88576688  0.21956076  0.23279953    -0.70500
O1223       O  0.90139978  0.19164200  0.23730637    -0.70100
O1224       O  0.95015127  0.22091262  0.25013798    -0.61300
O1225       O  0.91596417  0.20897295  0.27176218    -0.73800
O1226       O  0.93425416  0.20415150  0.21601613    -0.72600
Cu1227     Cu  0.91038953  0.23531831  0.23672962     1.04600
Cu1228     Cu  0.92604434  0.20548630  0.24414930     1.04300
C1229       C  0.92801636  0.21653287  0.20361216     0.93700
C1230       C  0.90661211  0.22427799  0.27684000     0.92800
C1231       C  0.95127065  0.23919899  0.24699979     0.85000
C1232       C  0.88585488  0.20094083  0.23333736     0.91200
O1233       O  0.82463189  0.22484058  0.43371495    -0.72500
O1234       O  0.81433479  0.28066981  0.41612692    -0.73500
O1235       O  0.80352696  0.25700419  0.44899712    -0.62100
O1236       O  0.83604994  0.24885957  0.40147632    -0.70500
O1237       O  0.81039081  0.23767670  0.38532959    -0.70100
O1238       O  0.77705567  0.24764900  0.43305435    -0.61300
O1239       O  0.78887431  0.26973225  0.39957207    -0.73800
O1240       O  0.79824143  0.21551531  0.41762711    -0.72600
Cu1241     Cu  0.82052056  0.25322132  0.42572316     1.04600
Cu1242     Cu  0.79268236  0.24236281  0.40842504     1.04300
C1243       C  0.81300260  0.21139846  0.42805100     0.93700
C1244       C  0.80028132  0.28361095  0.40424936     0.92800
C1245       C  0.78532210  0.25345226  0.44871716     0.85000
C1246       C  0.82848127  0.24198619  0.38599469     0.91200
O1247       O  0.76950800  0.46647787  0.31869262    -0.72500
O1248       O  0.78290440  0.41684779  0.34671358    -0.73500
O1249       O  0.80416728  0.44926390  0.33265451    -0.62100
O1250       O  0.74768465  0.43302298  0.33230412    -0.70500
O1251       O  0.75211568  0.42009370  0.30299726    -0.70100
O1252       O  0.80859486  0.43298353  0.30508024    -0.61300
O1253       O  0.78533813  0.40139302  0.31845058    -0.73800
O1254       O  0.77488673  0.45211370  0.29026169    -0.72600
Cu1255     Cu  0.77583018  0.44199599  0.33356356     1.04600
Cu1256     Cu  0.78037176  0.42619501  0.30318597     1.04300
C1257       C  0.77069674  0.46732758  0.30016157     0.93700
C1258       C  0.78595211  0.40126694  0.33706981     0.92800
C1259       C  0.81532399  0.44311612  0.31909505     0.85000
C1260       C  0.74122296  0.42365905  0.31755801     0.91200
O1261       O  0.80731892  0.80328038  0.13680088    -0.72500
O1262       O  0.78077506  0.79193784  0.08519900    -0.73500
O1263       O  0.79203185  0.76949946  0.11830402    -0.62100
O1264       O  0.79553961  0.82608685  0.10390566    -0.70500
O1265       O  0.82364411  0.82051549  0.08895714    -0.70100
O1266       O  0.82157998  0.76447281  0.10619106    -0.61300
O1267       O  0.80962779  0.78576077  0.07205077    -0.73800
O1268       O  0.83589960  0.79950901  0.12222115    -0.72600
Cu1269     Cu  0.79284680  0.79787637  0.11149495     1.04600
Cu1270     Cu  0.82362367  0.79233443  0.09683632     1.04300
C1271       C  0.82595213  0.80321273  0.13745160     0.93700
C1272       C  0.79117753  0.78721263  0.07047434     0.92800
C1273       C  0.80653058  0.75831308  0.11525861     0.85000
C1274       C  0.81012500  0.83219354  0.09410574     0.91200
O1275       O  0.72774427  0.90136947  0.32071038    -0.72500
O1276       O  0.74103585  0.94977760  0.28953491    -0.73500
O1277       O  0.76075579  0.91445953  0.30079674    -0.62100
O1278       O  0.70770287  0.93565161  0.30941844    -0.70500
O1279       O  0.71708953  0.95031709  0.33663341    -0.70100
O1280       O  0.77160811  0.92967457  0.32716879    -0.61300
O1281       O  0.75030922  0.96456709  0.31668795    -0.73800
O1282       O  0.73810455  0.91625427  0.34742773    -0.72600
Cu1283     Cu  0.73403555  0.92491741  0.30411777     1.04600
Cu1284     Cu  0.74473605  0.94078179  0.33287136     1.04300
C1285       C  0.73097795  0.90127076  0.33904218     0.93700
C1286       C  0.74704775  0.96503914  0.29840445     0.92800
C1287       C  0.77425081  0.91783257  0.31302490     0.85000
C1288       C  0.70379552  0.94589216  0.32438547     0.91200
O1289       O  0.91531605  0.80739423  0.31832686    -0.72500
O1290       O  0.89564650  0.80178384  0.26405891    -0.73500
O1291       O  0.92992032  0.78844027  0.28453477    -0.62100
O1292       O  0.88243162  0.82061743  0.29754805    -0.70500
O1293       O  0.89862443  0.84737482  0.28932984    -0.70100
O1294       O  0.94558164  0.81541745  0.27612616    -0.61300
O1295       O  0.91158990  0.82837217  0.25489136    -0.73800
O1296       O  0.93152542  0.83414289  0.31014935    -0.72600
Cu1297     Cu  0.90540743  0.80354979  0.29132878     1.04600
Cu1298     Cu  0.92248055  0.83220270  0.28222488     1.04300
C1299       C  0.92594701  0.82187292  0.32299890     0.93700
C1300       C  0.89951062  0.81464244  0.25125209     0.92800
C1301       C  0.94545728  0.79704306  0.27886109     0.85000
C1302       C  0.88317885  0.83909608  0.29547770     0.91200
O1303       O  0.77839734  0.63255732  0.18347890    -0.72500
O1304       O  0.76801532  0.58634573  0.21728509    -0.73500
O1305       O  0.74573338  0.61965214  0.20518970    -0.62100
O1306       O  0.80088257  0.59995319  0.19635819    -0.70500
O1307       O  0.81040061  0.61593988  0.22276422    -0.70100
O1308       O  0.75717107  0.63691112  0.22997778    -0.61300
O1309       O  0.77744172  0.60274052  0.24345588    -0.73800
O1310       O  0.79031826  0.64889811  0.20865687    -0.72600
Cu1311     Cu  0.77285602  0.60899122  0.19970275     1.04600
Cu1312     Cu  0.78407916  0.62665480  0.22716233     1.04300
C1313       C  0.78616307  0.64787427  0.19052722     0.93700
C1314       C  0.77142844  0.58697245  0.23550798     0.92800
C1315       C  0.74322771  0.63226867  0.21866893     0.85000
C1316       C  0.81424586  0.60496034  0.20835169     0.91200
O1317       O  0.70435887  0.76147282  0.45505992    -0.72500
O1318       O  0.67244260  0.75085908  0.40747724    -0.73500
O1319       O  0.68486644  0.72847884  0.44014431    -0.62100
O1320       O  0.69283662  0.78424711  0.42161334    -0.70500
O1321       O  0.71955365  0.77462463  0.40615386    -0.70100
O1322       O  0.71122606  0.72013979  0.42341435    -0.61300
O1323       O  0.69916366  0.74291351  0.39109435    -0.73800
O1324       O  0.73111067  0.75233957  0.43938775    -0.72600
Cu1325     Cu  0.68770136  0.75666696  0.43169713     1.04600
Cu1326     Cu  0.71620853  0.74722766  0.41456053     1.04300
C1327       C  0.72256985  0.75793763  0.45497244     0.93700
C1328       C  0.68074800  0.74549861  0.39175924     0.92800
C1329       C  0.69698682  0.71555252  0.43439539     0.85000
C1330       C  0.70718551  0.78780177  0.41021340     0.91200
O1331       O  0.59753385  0.71453280  0.27509450    -0.72500
O1332       O  0.58002533  0.70410117  0.21949916    -0.73500
O1333       O  0.61287941  0.69375217  0.24237342    -0.62100
O1334       O  0.56417945  0.72379848  0.25172043    -0.70500
O1335       O  0.57848182  0.75111368  0.24198514    -0.70100
O1336       O  0.62823671  0.72079475  0.23353386    -0.61300
O1337       O  0.59561953  0.73087852  0.21029032    -0.73800
O1338       O  0.61190111  0.74157596  0.26474359    -0.72600
Cu1339     Cu  0.58811208  0.70812500  0.24760535     1.04600
Cu1340     Cu  0.60401924  0.73706542  0.23734842     1.04300
C1341       C  0.60800615  0.72962326  0.27836756     0.93700
C1342       C  0.58531087  0.71601776  0.20617530     0.92800
C1343       C  0.62819903  0.70240229  0.23643961     0.85000
C1344       C  0.56335528  0.74189800  0.24776105     0.91200
C1345       C  0.64599311  0.73550643  0.35574940     0.30200
C1346       C  0.62879600  0.72779811  0.34769350    -0.36100
C1347       C  0.62588806  0.73129646  0.32772838     0.16200
C1348       C  0.63881229  0.74206104  0.31673584     0.22000
C1349       C  0.65601684  0.74952813  0.32469246    -0.34200
C1350       C  0.65915875  0.74558832  0.34440219     0.16100
O1351       O  0.65177114  0.73403309  0.37402681    -0.26300
C1352       C  0.66902894  0.74288231  0.37413041     0.05900
C1353       C  0.67439548  0.75025638  0.35611190    -0.31100
O1354       O  0.63360362  0.74335786  0.29839392    -0.23000
C1355       C  0.61726854  0.73305408  0.29733992    -0.03000
C1356       C  0.61169201  0.72512245  0.31516432    -0.17400
H1357       H  0.61859565  0.71943471  0.35629084     0.20600
H1358       H  0.66641841  0.75753726  0.31600021     0.19000
H1359       H  0.68739086  0.75833012  0.35236078     0.18900
H1360       H  0.59933652  0.71586773  0.31827635     0.14800
C1361       C  0.67528329  0.68372698  0.23103772     0.30200
C1362       C  0.69561444  0.68399103  0.23194545    -0.36100
C1363       C  0.70499866  0.66657901  0.22707169     0.16200
C1364       C  0.69522284  0.65003152  0.22121511     0.22000
C1365       C  0.67476828  0.64968952  0.22053121    -0.34200
C1366       C  0.66530907  0.66706102  0.22586317     0.16100
O1367       O  0.66364387  0.69840723  0.23517899    -0.26300
C1368       C  0.64592873  0.69100866  0.23295065     0.05900
C1369       C  0.64603776  0.67154332  0.22728623    -0.31100
O1370       O  0.70719190  0.63547288  0.21711288    -0.23000
C1371       C  0.72474281  0.64284338  0.22081657    -0.03000
C1372       C  0.72417261  0.66205751  0.22706213    -0.17400
H1373       H  0.70358428  0.69684973  0.23635471     0.20600
H1374       H  0.66678891  0.63676491  0.21634640     0.19000
H1375       H  0.63369860  0.66216450  0.22446549     0.18900
H1376       H  0.73626083  0.67141099  0.23088891     0.14800
C1377       C  0.84905476  0.87553041  0.30567691     0.30200
C1378       C  0.84243771  0.89451198  0.30948503    -0.36100
C1379       C  0.82217283  0.89690636  0.31043280     0.16200
C1380       C  0.80941435  0.88167489  0.30746263     0.22000
C1381       C  0.81601065  0.86267011  0.30411483    -0.34200
C1382       C  0.83620916  0.86024322  0.30347817     0.16100
O1383       O  0.86730899  0.87010127  0.30334598    -0.26300
C1384       C  0.86609372  0.85106633  0.29993502     0.05900
C1385       C  0.84712172  0.84410058  0.29997889    -0.31100
O1386       O  0.79113430  0.88725447  0.30788158    -0.23000
C1387       C  0.79207292  0.90623891  0.31149727    -0.03000
C1388       C  0.81100540  0.91310946  0.31344525    -0.17400
H1389       H  0.85237892  0.90659806  0.31128637     0.20600
H1390       H  0.80605930  0.85065936  0.30185402     0.19000
H1391       H  0.84210060  0.82943979  0.29711044     0.18900
H1392       H  0.81579249  0.92787666  0.31609942     0.14800
C1393       C  0.71479340  0.83534992  0.39285411     0.30200
C1394       C  0.71965398  0.85522371  0.39351839    -0.36100
C1395       C  0.72191327  0.86457161  0.37542680     0.16200
C1396       C  0.71943259  0.85510684  0.35788464     0.22000
C1397       C  0.71477934  0.83525064  0.35721110    -0.34200
C1398       C  0.71265737  0.82591054  0.37524498     0.16100
O1399       O  0.71243658  0.82351961  0.40792089    -0.26300
C1400       C  0.70880315  0.80634761  0.39969454     0.05900
C1401       C  0.70890068  0.80699604  0.37949257    -0.31100
O1402       O  0.72213889  0.86666343  0.34275168    -0.23000
C1403       C  0.72654222  0.88377727  0.35068094    -0.03000
C1404       C  0.72669044  0.88330022  0.37095069    -0.17400
H1405       H  0.72168955  0.86282304  0.40713907     0.20600
H1406       H  0.71307348  0.82757457  0.34358630     0.19000
H1407       H  0.70687928  0.79506803  0.36941292     0.18900
H1408       H  0.72979711  0.89508039  0.38091484     0.14800
C1409       C  0.79458810  0.71245024  0.13377972     0.30200
C1410       C  0.78236692  0.69653591  0.13765671    -0.36100
C1411       C  0.78773844  0.68471187  0.15342085     0.16200
C1412       C  0.80385489  0.68841759  0.16480432     0.22000
C1413       C  0.81642466  0.70397632  0.16053240    -0.34200
C1414       C  0.81123414  0.71562476  0.14455196     0.16100
O1415       O  0.79118113  0.72656168  0.12118929    -0.26300
C1416       C  0.80616585  0.73860906  0.12349537     0.05900
C1417       C  0.81917077  0.73247831  0.13771957    -0.31100
O1418       O  0.80538095  0.67622217  0.17960861    -0.23000
C1419       C  0.79021651  0.66435949  0.17744716    -0.03000
C1420       C  0.77883887  0.66886996  0.16133002    -0.17400
H1421       H  0.76922510  0.69395528  0.12941168     0.20600
H1422       H  0.82902314  0.70713577  0.16939219     0.19000
H1423       H  0.83160644  0.74026019  0.14342392     0.18900
H1424       H  0.76567039  0.66175244  0.15645045     0.14800
C1425       C  0.85997651  0.81222268  0.17441048     0.30200
C1426       C  0.87856011  0.81597277  0.18211067    -0.36100
C1427       C  0.88017075  0.81529897  0.20246742     0.16200
C1428       C  0.86458742  0.81086989  0.21433974     0.22000
C1429       C  0.84591920  0.80752054  0.20667382    -0.34200
C1430       C  0.84425423  0.80849075  0.18633761     0.16100
O1431       O  0.85544486  0.81123044  0.15579730    -0.26300
C1432       C  0.83650776  0.80709821  0.15571864     0.05900
C1433       C  0.82870054  0.80534416  0.17434382    -0.31100
O1434       O  0.86952491  0.80996262  0.23283823    -0.23000
C1435       C  0.88844452  0.81416527  0.23293060    -0.03000
C1436       C  0.89587186  0.81783719  0.21445065    -0.17400
H1437       H  0.89095043  0.81890825  0.17285150     0.20600
H1438       H  0.83363474  0.80408454  0.21590675     0.19000
H1439       H  0.81398260  0.80147780  0.17840621     0.18900
H1440       H  0.91069647  0.82129867  0.21042612     0.14800
C1441       C  0.76529145  0.53920498  0.25250639     0.30200
C1442       C  0.76250221  0.51904276  0.25061381    -0.36100
C1443       C  0.76461376  0.50801732  0.26766694     0.16200
C1444       C  0.76893807  0.51628339  0.28544174     0.22000
C1445       C  0.77179984  0.53647963  0.28732002    -0.34200
C1446       C  0.76987734  0.54750812  0.27019635     0.16100
O1447       O  0.76475820  0.55206218  0.23827727    -0.26300
C1448       C  0.76905734  0.56889563  0.24686767     0.05900
C1449       C  0.77245462  0.56695056  0.26675516    -0.31100
O1450       O  0.77091620  0.50314152  0.29933477    -0.23000
C1451       C  0.76801147  0.48622038  0.29030755    -0.03000
C1452       C  0.76402704  0.48838333  0.27057643    -0.17400
H1453       H  0.75934555  0.51236680  0.23670847     0.20600
H1454       H  0.77566565  0.54307201  0.30108226     0.19000
H1455       H  0.77667114  0.57811054  0.27702971     0.18900
H1456       H  0.76159887  0.47710228  0.25986119     0.14800
C1457       C  0.80020611  0.33203667  0.38710448     0.30200
C1458       C  0.80449666  0.35207747  0.38669870    -0.36100
C1459       C  0.79786228  0.36241275  0.37028008     0.16200
C1460       C  0.78807833  0.35355972  0.35513785     0.22000
C1461       C  0.78357633  0.33367753  0.35567773    -0.34200
C1462       C  0.78980726  0.32349213  0.37221203     0.16100
O1463       O  0.80523150  0.31936905  0.40076955    -0.26300
C1464       C  0.79756810  0.30263064  0.39461411     0.05900
C1465       C  0.78775833  0.30444798  0.37701379    -0.31100
O1466       O  0.78320880  0.36586116  0.34121410    -0.23000
C1467       C  0.78966022  0.38294984  0.34758944    -0.03000
C1468       C  0.79884209  0.38171779  0.36563296    -0.17400
H1469       H  0.81235031  0.35913089  0.39837349     0.20600
H1470       H  0.77562426  0.32664519  0.34405637     0.19000
H1471       H  0.78070897  0.29314684  0.36860818     0.18900
H1472       H  0.80512473  0.39338966  0.37413490     0.14800
C1473       C  0.88317496  0.23899840  0.31945066     0.30200
C1474       C  0.87543751  0.25246922  0.33269898    -0.36100
C1475       C  0.86206773  0.24506047  0.34622664     0.16200
C1476       C  0.85634060  0.22579814  0.34646355     0.22000
C1477       C  0.86435690  0.21224811  0.33341614    -0.34200
C1478       C  0.87809959  0.21957286  0.32016075     0.16100
O1479       O  0.89480793  0.24303115  0.30472740    -0.26300
C1480       C  0.89770075  0.22588889  0.29619208     0.05900
C1481       C  0.88776288  0.21073269  0.30523536    -0.31100
O1482       O  0.84327259  0.22216831  0.36009949    -0.23000
C1483       C  0.84087072  0.23928053  0.36883550    -0.03000
C1484       C  0.85225583  0.25400421  0.36092257    -0.17400
H1485       H  0.87937036  0.26772535  0.33231536     0.20600
H1486       H  0.86006053  0.19708939  0.33348606     0.19000
H1487       H  0.88652156  0.19576160  0.30049129     0.18900
H1488       H  0.85313385  0.26908883  0.36539174     0.14800
C1489       C  0.75011544  0.01380429  0.28293075     0.30200
C1490       C  0.74948411  0.03416909  0.28512314    -0.36100
C1491       C  0.74921640  0.04514231  0.26784519     0.16200
C1492       C  0.74982193  0.03664107  0.24966875     0.22000
C1493       C  0.75038820  0.01629767  0.24748293    -0.34200
C1494       C  0.75036026  0.00532578  0.26473909     0.16100
O1495       O  0.74957870  0.00078084  0.29707885    -0.26300
C1496       C  0.74934081  0.98369536  0.28786984     0.05900
C1497       C  0.74972898  0.98566151  0.26770123    -0.31100
O1498       O  0.74865553  0.04954125  0.23547348    -0.23000
C1499       C  0.74709966  0.06658230  0.24459528    -0.03000
C1500       C  0.74738562  0.06473284  0.26478947    -0.17400
H1501       H  0.74873402  0.04096437  0.29931421     0.20600
H1502       H  0.75031994  0.00948138  0.23328449     0.19000
H1503       H  0.74916860  0.97428151  0.25682858     0.18900
H1504       H  0.74585992  0.07608641  0.27560019     0.14800
C1505       C  0.81783921  0.15018099  0.21745262     0.30200
C1506       C  0.83794144  0.15081120  0.21368332    -0.36100
C1507       C  0.84789741  0.16720299  0.22084958     0.16200
C1508       C  0.83863722  0.18213345  0.23061517     0.22000
C1509       C  0.81867640  0.18138698  0.23457683    -0.34200
C1510       C  0.80885878  0.16486738  0.22781410     0.16100
O1511       O  0.80558161  0.13622331  0.21233063    -0.26300
C1512       C  0.78869608  0.14199288  0.21990164     0.05900
C1513       C  0.78993712  0.15966381  0.22966528    -0.31100
O1514       O  0.85062449  0.19615219  0.23587593    -0.23000
C1515       C  0.86787693  0.19002873  0.22968200    -0.03000
C1516       C  0.86712868  0.17205222  0.22034679    -0.17400
H1517       H  0.84532076  0.13927836  0.20592045     0.20600
H1518       H  0.81134297  0.19279682  0.24256077     0.19000
H1519       H  0.77843054  0.16764382  0.23688400     0.18900
H1520       H  0.87902272  0.16382739  0.21410404     0.14800
C1521       C  0.67368745  0.37186408  0.31141770     0.30200
C1522       C  0.68940440  0.37544497  0.32395512    -0.36100
C1523       C  0.70011016  0.39247016  0.32030422     0.16200
C1524       C  0.69603168  0.40480001  0.30498170     0.22000
C1525       C  0.68018013  0.40137027  0.29260609    -0.34200
C1526       C  0.66918694  0.38463013  0.29657331     0.16100
O1527       O  0.66156916  0.35695171  0.31228159    -0.26300
C1528       C  0.64896959  0.36043489  0.29800674     0.05900
C1529       C  0.65301294  0.37742845  0.28776076    -0.31100
O1530       O  0.70925055  0.41856508  0.30288476    -0.23000
C1531       C  0.72159460  0.41543073  0.31745361    -0.03000
C1532       C  0.71660479  0.39942879  0.32879094    -0.17400
H1533       H  0.69312719  0.36556645  0.33564950     0.20600
H1534       H  0.67682625  0.41092833  0.28053267     0.19000
H1535       H  0.64507925  0.38360769  0.27563650     0.18900
H1536       H  0.72502992  0.39272886  0.34029009     0.14800
C1537       C  0.71562644  0.18395046  0.15815456     0.30200
C1538       C  0.70895416  0.19176309  0.14042459    -0.36100
C1539       C  0.71106095  0.21199988  0.13816094     0.16200
C1540       C  0.71956587  0.22352345  0.15223855     0.22000
C1541       C  0.72584710  0.21582102  0.17001162    -0.34200
C1542       C  0.72333589  0.19577688  0.17243440     0.16100
O1543       O  0.71557475  0.16541602  0.16330142    -0.26300
C1544       C  0.72290124  0.16557308  0.18125556     0.05900
C1545       C  0.72788896  0.18405240  0.18769389    -0.31100
O1546       O  0.72075736  0.24187062  0.14702007    -0.23000
C1547       C  0.71264675  0.24234115  0.12948789    -0.03000
C1548       C  0.70614063  0.22420836  0.12319780    -0.17400
H1549       H  0.70263742  0.18271015  0.12919230     0.20600
H1550       H  0.73229123  0.22486315  0.18118808     0.19000
H1551       H  0.73454191  0.18812584  0.20137762     0.18900
H1552       H  0.69912679  0.22056135  0.10958193     0.14800
C1553       C  0.64921791  0.31694400  0.21328219     0.30200
C1554       C  0.66783860  0.31436896  0.20535512    -0.36100
C1555       C  0.66879896  0.31302761  0.18505266     0.16200
C1556       C  0.65251025  0.31380263  0.17334683     0.22000
C1557       C  0.63387437  0.31673373  0.18127882    -0.34200
C1558       C  0.63294339  0.31845455  0.20161988     0.16100
O1559       O  0.64499920  0.31800822  0.23191995    -0.26300
C1560       C  0.62583642  0.32061762  0.23227405     0.05900
C1561       C  0.61748697  0.32117591  0.21386104    -0.31100
O1562       O  0.65674201  0.31127059  0.15478828    -0.23000
C1563       C  0.67600625  0.30917119  0.15462855    -0.03000
C1564       C  0.68429427  0.31022957  0.17303210    -0.17400
H1565       H  0.68067281  0.31330301  0.21441841     0.20600
H1566       H  0.62100468  0.31746424  0.17224192     0.19000
H1567       H  0.60227776  0.32275975  0.21012055     0.18900
H1568       H  0.69944166  0.30855257  0.17700332     0.14800
C1569       C  0.03148937  0.27146290  0.25123423     0.30200
C1570       C  0.02183031  0.25344902  0.25263816    -0.36100
C1571       C  0.00136328  0.25408786  0.25186222     0.16200
C1572       C  0.99110848  0.27122224  0.24970100     0.22000
C1573       C  0.00072258  0.28919735  0.24869543    -0.34200
C1574       C  0.02110263  0.28857411  0.24964316     0.16100
O1575       O  0.05055317  0.27433600  0.25053068    -0.26300
C1576       C  0.05228692  0.29359169  0.24877218     0.05900
C1577       C  0.03443356  0.30310479  0.24826265    -0.31100
O1578       O  0.97216221  0.26839441  0.24806449    -0.23000
C1579       C  0.97015123  0.24917901  0.24941955    -0.03000
C1580       C  0.98783764  0.23955196  0.25188861    -0.17400
H1581       H  0.02970555  0.23986243  0.25378162     0.20600
H1582       H  0.99287628  0.30272082  0.24685173     0.19000
H1583       H  0.03168844  0.31849531  0.24635034     0.18900
H1584       H  0.99039661  0.22403752  0.25280061     0.14800
C1585       C  0.14950664  0.30892525  0.31287741     0.30200
C1586       C  0.16714087  0.30225011  0.32072109    -0.36100
C1587       C  0.16967704  0.30500603  0.34076876     0.16200
C1588       C  0.15562665  0.31337019  0.35241749     0.22000
C1589       C  0.13807801  0.32041392  0.34447956    -0.34200
C1590       C  0.13569148  0.31799735  0.32427727     0.16100
O1591       O  0.14424998  0.30771147  0.29450007    -0.26300
C1592       C  0.12693400  0.31635467  0.29386816     0.05900
C1593       C  0.12086371  0.32320811  0.31198020    -0.31100
O1594       O  0.16068034  0.31351010  0.37097147    -0.23000
C1595       C  0.17835450  0.30549760  0.37111685    -0.03000
C1596       C  0.18473874  0.30004940  0.35270370    -0.17400
H1597       H  0.17810181  0.29533623  0.31179964     0.20600
H1598       H  0.12705216  0.32719971  0.35342697     0.19000
H1599       H  0.10753217  0.33078654  0.31554158     0.18900
H1600       H  0.19816221  0.29280187  0.34882012     0.14800
C1601       C  0.52087400  0.29111958  0.27333942     0.30200
C1602       C  0.50059338  0.29367105  0.27326057    -0.36100
C1603       C  0.48938832  0.27662416  0.27239999     0.16200
C1604       C  0.49760321  0.25832970  0.27146033     0.22000
C1605       C  0.51790957  0.25577777  0.27163044    -0.34200
C1606       C  0.52912834  0.27282941  0.27273333     0.16100
O1607       O  0.53398533  0.30503121  0.27478880    -0.26300
C1608       C  0.55090904  0.29561062  0.27528223     0.05900
C1609       C  0.54880547  0.27549299  0.27411216    -0.31100
O1610       O  0.48441630  0.24437083  0.27158066    -0.23000
C1611       C  0.46751378  0.25379771  0.27272780    -0.03000
C1612       C  0.46972197  0.27392870  0.27327846    -0.17400
H1613       H  0.49401313  0.30794606  0.27425812     0.20600
H1614       H  0.52448109  0.24147062  0.27140844     0.19000
H1615       H  0.56005848  0.26449008  0.27454567     0.18900
H1616       H  0.45853377  0.28490199  0.27483594     0.14800
C1617       C  0.33833901  0.18433213  0.29919070     0.30200
C1618       C  0.31801347  0.18423392  0.29752459    -0.36100
C1619       C  0.30866073  0.16672519  0.30230401     0.16200
C1620       C  0.31845448  0.15044930  0.30881243     0.22000
C1621       C  0.33889779  0.15049735  0.31033010    -0.34200
C1622       C  0.34834501  0.16793416  0.30505927     0.16100
O1623       O  0.34996923  0.19898370  0.29477929    -0.26300
C1624       C  0.36774527  0.19186239  0.29754232     0.05900
C1625       C  0.36764489  0.17258423  0.30387456    -0.31100
O1626       O  0.30656593  0.13568294  0.31254630    -0.23000
C1627       C  0.28902455  0.14258344  0.30793050    -0.03000
C1628       C  0.28955213  0.16176992  0.30148634    -0.17400
H1629       H  0.31004615  0.19684700  0.29246597     0.20600
H1630       H  0.34690287  0.13774293  0.31494113     0.19000
H1631       H  0.38000443  0.16332504  0.30695289     0.18900
H1632       H  0.27747624  0.17083259  0.29699842     0.14800
C1633       C  0.22095723  0.21160747  0.39297319     0.30200
C1634       C  0.23325691  0.19598376  0.38853797    -0.36100
C1635       C  0.22710685  0.18384400  0.37338738     0.16200
C1636       C  0.21020127  0.18699993  0.36301107     0.22000
C1637       C  0.19758965  0.20231991  0.36783850    -0.34200
C1638       C  0.20355992  0.21427008  0.38328583     0.16100
O1639       O  0.22485911  0.22587809  0.40516015    -0.26300
C1640       C  0.20947249  0.23748957  0.40373354     0.05900
C1641       C  0.19569137  0.23096721  0.39046418    -0.31100
O1642       O  0.20802713  0.17453826  0.34854714    -0.23000
C1643       C  0.22359343  0.16313053  0.34999915    -0.03000
C1644       C  0.23584942  0.16812894  0.36524807    -0.17400
H1645       H  0.24697432  0.19381988  0.39593860     0.20600
H1646       H  0.18435577  0.20506271  0.35978094     0.19000
H1647       H  0.18273889  0.23842140  0.38551189     0.18900
H1648       H  0.24947756  0.16141483  0.36938316     0.14800
C1649       C  0.20727378  0.38554498  0.21018393     0.30200
C1650       C  0.19986515  0.36667565  0.21217167    -0.36100
C1651       C  0.18046707  0.36530391  0.21810856     0.16200
C1652       C  0.16907411  0.38139558  0.22191334     0.22000
C1653       C  0.17646799  0.40037685  0.21974267    -0.34200
C1654       C  0.19594762  0.40177357  0.21365263     0.16100
O1655       O  0.22543969  0.38997155  0.20626795    -0.26300
C1656       C  0.22584189  0.40928220  0.20687267     0.05900
C1657       C  0.20790834  0.41754303  0.21133929    -0.31100
O1658       O  0.15136596  0.37657330  0.22759470    -0.23000
C1659       C  0.15149936  0.35717659  0.22729033    -0.03000
C1660       C  0.16922485  0.34939744  0.22152417    -0.17400
H1661       H  0.20876672  0.35391845  0.20965586     0.20600
H1662       H  0.16775333  0.41312267  0.22287394     0.19000
H1663       H  0.20456080  0.43272020  0.21389670     0.18900
H1664       H  0.17320921  0.33422760  0.22002419     0.14800
C1665       C  0.29259843  0.35276616  0.16532425     0.30200
C1666       C  0.29042240  0.33254965  0.16582276    -0.36100
C1667       C  0.29543264  0.32263346  0.14878519     0.16200
C1668       C  0.30263914  0.33176522  0.13239387     0.22000
C1669       C  0.30462544  0.35215524  0.13180853    -0.34200
C1670       C  0.29911047  0.36220781  0.14880965     0.16100
O1671       O  0.28835403  0.36479300  0.17961455    -0.26300
C1672       C  0.29185527  0.38228271  0.17217964     0.05900
C1673       C  0.29849427  0.38163838  0.15300875    -0.31100
O1674       O  0.30666924  0.31929932  0.11823653    -0.23000
C1675       C  0.30150353  0.30215428  0.12570817    -0.03000
C1676       C  0.29441460  0.30343131  0.14457679    -0.17400
H1677       H  0.28493229  0.32507004  0.17856352     0.20600
H1678       H  0.30985272  0.35965465  0.11897338     0.19000
H1679       H  0.30231663  0.39369970  0.14361780     0.18900
H1680       H  0.28948749  0.29175411  0.15395482     0.14800
C1681       C  0.36901833  0.23489300  0.21109340     0.30200
C1682       C  0.35107333  0.24079550  0.20341599    -0.36100
C1683       C  0.34849558  0.23786196  0.18342690     0.16200
C1684       C  0.36277818  0.23007643  0.17164944     0.22000
C1685       C  0.38065511  0.22375286  0.17944351    -0.34200
C1686       C  0.38309360  0.22631972  0.19961525     0.16100
O1687       O  0.37440498  0.23653247  0.22937292    -0.26300
C1688       C  0.39205641  0.22863319  0.22987446     0.05900
C1689       C  0.39824749  0.22184706  0.21178858    -0.31100
O1690       O  0.35757634  0.22975731  0.15313792    -0.23000
C1691       C  0.33959116  0.23703088  0.15321305    -0.03000
C1692       C  0.33315063  0.24218259  0.17167094    -0.17400
H1693       H  0.33992623  0.24731879  0.21241132     0.20600
H1694       H  0.39188699  0.21741931  0.17041387     0.19000
H1695       H  0.41190151  0.21490471  0.20814554     0.18900
H1696       H  0.31946994  0.24886257  0.17568871     0.14800
C1697       C  0.25528317  0.25898124  0.99089660     0.30200
C1698       C  0.27338869  0.25868454  0.00036715    -0.36100
C1699       C  0.27286947  0.25857406  0.02081695     0.16200
C1700       C  0.25575040  0.25852037  0.03132518     0.22000
C1701       C  0.23763072  0.25918276  0.02185037    -0.34200
C1702       C  0.23815492  0.25951119  0.00137990     0.16100
O1703       O  0.25233699  0.25805396  0.97189046    -0.26300
C1704       C  0.23303753  0.25828724  0.97013686     0.05900
C1705       C  0.22350486  0.25928685  0.98802228    -0.31100
O1706       O  0.25872215  0.25717642  0.05032196    -0.23000
C1707       C  0.27803828  0.25663285  0.05199091    -0.03000
C1708       C  0.28752666  0.25756034  0.03409411    -0.17400
H1709       H  0.28692588  0.25814486  0.99236452     0.20600
H1710       H  0.22407969  0.25903014  0.02984480     0.19000
H1711       H  0.20801040  0.25899350  0.99078888     0.18900
H1712       H  0.30299585  0.25685621  0.03126014     0.14800
C1713       C  0.22217847  0.35263341  0.85420042     0.30200
C1714       C  0.22614329  0.33266658  0.85515610    -0.36100
C1715       C  0.21922689  0.32292303  0.87168634     0.16200
C1716       C  0.20866941  0.33195208  0.88619594     0.22000
C1717       C  0.20490597  0.35208900  0.88536585    -0.34200
C1718       C  0.21226423  0.36199571  0.86896480     0.16100
O1719       O  0.22759382  0.36452698  0.84012591    -0.26300
C1720       C  0.22140183  0.38187251  0.84602681     0.05900
C1721       C  0.21186018  0.38123774  0.86393111    -0.31100
O1722       O  0.20328136  0.31968683  0.90011326    -0.23000
C1723       C  0.21089950  0.30274185  0.89450068    -0.03000
C1724       C  0.22096605  0.30399913  0.87698154    -0.17400
H1725       H  0.23424114  0.32525763  0.84386360     0.20600
H1726       H  0.19698106  0.35953329  0.89675632     0.19000
H1727       H  0.20553709  0.39320339  0.87198835     0.18900
H1728       H  0.22822454  0.29246052  0.86908242     0.14800
C1729       C  0.34561645  0.38029561  0.80770017     0.30200
C1730       C  0.33819875  0.39910298  0.81092891    -0.36100
C1731       C  0.31783387  0.40074108  0.81118652     0.16200
C1732       C  0.30580071  0.38494791  0.80809734     0.22000
C1733       C  0.31317623  0.36617880  0.80531430    -0.34200
C1734       C  0.33341889  0.36450401  0.80538767     0.16100
O1735       O  0.36408849  0.37549950  0.80583499    -0.26300
C1736       C  0.36362224  0.35638768  0.80261449     0.05900
C1737       C  0.34495020  0.34872677  0.80233933    -0.31100
O1738       O  0.28734209  0.38974104  0.80780133    -0.23000
C1739       C  0.28736278  0.40877345  0.81110139    -0.03000
C1740       C  0.30590501  0.41653171  0.81350501    -0.17400
H1741       H  0.34762764  0.41159466  0.81276149     0.20600
H1742       H  0.30375036  0.35377913  0.80290763     0.19000
H1743       H  0.34051706  0.33389689  0.79938002     0.18900
H1744       H  0.30996592  0.43155235  0.81596684     0.14800
C1745       C  0.27171684  0.28356830  0.52850603     0.30200
C1746       C  0.27475199  0.28211699  0.50834226    -0.36100
C1747       C  0.25798883  0.28238109  0.49671476     0.16200
C1748       C  0.23949707  0.28369753  0.50443795     0.22000
C1749       C  0.23646711  0.28516503  0.52462629    -0.34200
C1750       C  0.25325832  0.28519020  0.53624747     0.16100
O1751       O  0.28537445  0.28447189  0.54190924    -0.26300
C1752       C  0.27561811  0.28681618  0.55848911     0.05900
C1753       C  0.25554584  0.28743521  0.55587744    -0.31100
O1754       O  0.22596158  0.28461771  0.49087069    -0.23000
C1755       C  0.23588156  0.28405527  0.47421648    -0.03000
C1756       C  0.25589510  0.28262498  0.47696220    -0.17400
H1757       H  0.28919832  0.28138218  0.50213705     0.20600
H1758       H  0.22207033  0.28673825  0.53078307     0.19000
H1759       H  0.24436613  0.28960386  0.56675590     0.18900
H1760       H  0.26723731  0.28249128  0.46603404     0.14800
C1761       C  0.34640875  0.31106269  0.68674294     0.30200
C1762       C  0.34694803  0.30878576  0.70694270    -0.36100
C1763       C  0.36427584  0.31430001  0.71605537     0.16200
C1764       C  0.38000291  0.32202891  0.70620952     0.22000
C1765       C  0.37954666  0.32411922  0.68582996    -0.34200
C1766       C  0.36226285  0.31812329  0.67658229     0.16100
O1767       O  0.33174680  0.30631762  0.67536095    -0.26300
C1768       C  0.33831451  0.31005889  0.65758005     0.05900
C1769       C  0.35724966  0.31732712  0.65738103    -0.31100
O1770       O  0.39469595  0.32622579  0.71799276    -0.23000
C1771       C  0.38822562  0.32066600  0.73542693    -0.03000
C1772       C  0.36947577  0.31316708  0.73498962    -0.17400
H1773       H  0.33479367  0.30280512  0.71498321     0.20600
H1774       H  0.39185921  0.32969615  0.67774059     0.19000
H1775       H  0.36599908  0.32135662  0.64491026     0.18900
H1776       H  0.36086777  0.30773455  0.74702366     0.14800
C1777       C  0.14886307  0.22972529  0.85102448     0.30200
C1778       C  0.13034869  0.22535301  0.84347773    -0.36100
C1779       C  0.12886777  0.22496898  0.82309765     0.16200
C1780       C  0.14451314  0.22892474  0.81111801     0.22000
C1781       C  0.16306931  0.23273569  0.81861809    -0.34200
C1782       C  0.16458338  0.23287175  0.83891170     0.16100
O1783       O  0.15339833  0.23186733  0.86955711    -0.26300
C1784       C  0.17231504  0.23609607  0.86924238     0.05900
C1785       C  0.18006993  0.23678763  0.85058492    -0.31100
O1786       O  0.13969887  0.22926848  0.79263615    -0.23000
C1787       C  0.12080780  0.22515842  0.79263632    -0.03000
C1788       C  0.11321706  0.22208207  0.81114655    -0.17400
H1789       H  0.11791917  0.22287776  0.85281239     0.20600
H1790       H  0.17535592  0.23584547  0.80927861     0.19000
H1791       H  0.19478302  0.24037184  0.84626366     0.18900
H1792       H  0.09831446  0.21900831  0.81519134     0.14800
C1793       C  0.19493909  0.14644365  0.71973911     0.30200
C1794       C  0.17482212  0.14721493  0.71584056    -0.36100
C1795       C  0.16517950  0.16447760  0.72133794     0.16200
C1796       C  0.17477189  0.18004906  0.72964289     0.22000
C1797       C  0.19470268  0.17913311  0.73385337    -0.34200
C1798       C  0.20418079  0.16177660  0.72882646     0.16100
O1799       O  0.20707216  0.13204821  0.71542696    -0.26300
C1800       C  0.22415328  0.13817415  0.72231964     0.05900
C1801       C  0.22309346  0.15647855  0.73088755    -0.31100
O1802       O  0.16310239  0.19482523  0.73345368    -0.23000
C1803       C  0.14565548  0.18861356  0.72784798    -0.03000
C1804       C  0.14602589  0.16977638  0.72029891    -0.17400
H1805       H  0.16721908  0.13521827  0.70904485     0.20600
H1806       H  0.20230121  0.19111782  0.74068043     0.19000
H1807       H  0.23482455  0.16501326  0.73702328     0.18900
H1808       H  0.13392649  0.16123662  0.71495069     0.14800
C1809       C  0.28990150  0.19394307  0.67472838     0.30200
C1810       C  0.28795057  0.21422231  0.67483888    -0.36100
C1811       C  0.29234360  0.22372505  0.65734426     0.16200
C1812       C  0.29871534  0.21412077  0.64088565     0.22000
C1813       C  0.30034578  0.19370934  0.64066577    -0.34200
C1814       C  0.29552286  0.18411401  0.65812268     0.16100
O1815       O  0.28621871  0.18219920  0.68946189    -0.26300
C1816       C  0.28918620  0.16454224  0.68216483     0.05900
C1817       C  0.29492338  0.16480514  0.66271054    -0.31100
O1818       O  0.30264549  0.22619860  0.62636682    -0.23000
C1819       C  0.29829897  0.24363628  0.63365050    -0.03000
C1820       C  0.29172993  0.24290101  0.65276047    -0.17400
H1821       H  0.28319849  0.22204477  0.68763841     0.20600
H1822       H  0.30493757  0.18587131  0.62781406     0.19000
H1823       H  0.29809402  0.15254714  0.65334707     0.18900
H1824       H  0.28756208  0.25489587  0.66207544     0.14800
C1825       C  0.73982529  0.28212507  0.02388531     0.30200
C1826       C  0.73691092  0.28215423  0.00364949    -0.36100
C1827       C  0.75375325  0.28304138  0.99211898     0.16200
C1828       C  0.77221295  0.28345234  0.99998653     0.22000
C1829       C  0.77513298  0.28336733  0.02022463    -0.34200
C1830       C  0.75827648  0.28285100  0.03175651     0.16100
O1831       O  0.72610273  0.28287384  0.03728477    -0.26300
C1832       C  0.73583566  0.28425106  0.05397313     0.05900
C1833       C  0.75592817  0.28424810  0.05143780    -0.31100
O1834       O  0.78586829  0.28489981  0.98656846    -0.23000
C1835       C  0.77606990  0.28560915  0.96986689    -0.03000
C1836       C  0.75600826  0.28456018  0.97242579    -0.17400
H1837       H  0.72247763  0.28218281  0.99734750     0.20600
H1838       H  0.78953327  0.28429605  0.02653596     0.19000
H1839       H  0.76710876  0.28588249  0.06240404     0.18900
H1840       H  0.74476181  0.28514849  0.96142474     0.14800
C1841       C  0.99268467  0.29031843  0.75057692     0.30200
C1842       C  0.01302387  0.29283821  0.75104303    -0.36100
C1843       C  0.02427597  0.27573444  0.75063534     0.16200
C1844       C  0.01600547  0.25744391  0.75018270     0.22000
C1845       C  0.99571546  0.25493890  0.74973930    -0.34200
C1846       C  0.98450133  0.27200244  0.74980018     0.16100
O1847       O  0.97948349  0.30425984  0.74958902    -0.26300
C1848       C  0.96262378  0.29477106  0.74800222     0.05900
C1849       C  0.96488169  0.27464554  0.74807741    -0.31100
O1850       O  0.02911147  0.24346056  0.74917139    -0.23000
C1851       C  0.04610096  0.25278878  0.74880611    -0.03000
C1852       C  0.04399541  0.27296050  0.74963996    -0.17400
H1853       H  0.01961490  0.30715022  0.75109399     0.20600
H1854       H  0.98913944  0.24065291  0.74880270     0.19000
H1855       H  0.95375976  0.26360768  0.74645802     0.18900
H1856       H  0.05528334  0.28393829  0.74911927     0.14800
C1857       C  0.85957496  0.31259649  0.84965081     0.30200
C1858       C  0.87759706  0.31866227  0.84194732    -0.36100
C1859       C  0.87928389  0.31828541  0.82154093     0.16200
C1860       C  0.86435606  0.31193046  0.80972059     0.22000
C1861       C  0.84630384  0.30626827  0.81735844    -0.34200
C1862       C  0.84449577  0.30704378  0.83762747     0.16100
O1863       O  0.85483778  0.31140455  0.86825550    -0.26300
C1864       C  0.83638320  0.30540605  0.86804435     0.05900
C1865       C  0.82917640  0.30255568  0.84938719    -0.31100
O1866       O  0.86918280  0.31181669  0.79121102    -0.23000
C1867       C  0.88733167  0.31850947  0.79094251    -0.03000
C1868       C  0.89441823  0.32298983  0.80939335    -0.17400
H1869       H  0.88947509  0.32324930  0.85120837     0.20600
H1870       H  0.83449590  0.30147679  0.80810394     0.19000
H1871       H  0.81489369  0.29743672  0.84515777     0.18900
H1872       H  0.90870296  0.32835135  0.81328423     0.14800
C1873       C  0.78656139  0.22085033  0.87455807     0.30200
C1874       C  0.77868962  0.21281310  0.85756244    -0.36100
C1875       C  0.78322636  0.19328927  0.85399469     0.16200
C1876       C  0.79422729  0.18219769  0.86660855     0.22000
C1877       C  0.80224561  0.19031610  0.88360980    -0.34200
C1878       C  0.79816693  0.21008531  0.88690691     0.16100
O1879       O  0.78488316  0.23907674  0.88007674    -0.26300
C1880       C  0.79574040  0.24022655  0.89603614     0.05900
C1881       C  0.80445508  0.22263688  0.90103206    -0.31100
O1882       O  0.79630442  0.16409983  0.86048555    -0.23000
C1883       C  0.78695563  0.16384805  0.84351571    -0.03000
C1884       C  0.77855560  0.18157963  0.83872992    -0.17400
H1885       H  0.77000018  0.22133564  0.84758546     0.20600
H1886       H  0.81130919  0.18192343  0.89335378     0.19000
H1887       H  0.81425142  0.21967379  0.91298544     0.18900
H1888       H  0.76986728  0.18513373  0.82609250     0.14800
C1889       C  0.73599371  0.25691834  0.51969968     0.30200
C1890       C  0.73378701  0.25603744  0.49937093    -0.36100
C1891       C  0.75104960  0.25626235  0.48841418     0.16200
C1892       C  0.76918166  0.25753229  0.49692761     0.22000
C1893       C  0.77138579  0.25827927  0.51722208    -0.34200
C1894       C  0.75416881  0.25778869  0.52816644     0.16100
O1895       O  0.72188829  0.25633226  0.53272328    -0.26300
C1896       C  0.73114315  0.25665897  0.54975245     0.05900
C1897       C  0.75126832  0.25748875  0.54780855    -0.31100
O1898       O  0.78338416  0.25718065  0.48404979    -0.23000
C1899       C  0.77433185  0.25550249  0.46701618    -0.03000
C1900       C  0.75415979  0.25482606  0.46881085    -0.17400
H1901       H  0.71961339  0.25492222  0.49259433     0.20600
H1902       H  0.78558145  0.25885695  0.52401665     0.19000
H1903       H  0.76214405  0.25759304  0.55919228     0.18900
H1904       H  0.74342929  0.25320450  0.45740335     0.14800
C1905       C  0.84437308  0.37927172  0.71603600     0.30200
C1906       C  0.83713198  0.39758108  0.71030401    -0.36100
C1907       C  0.81678060  0.39912488  0.70871146     0.16200
C1908       C  0.80454791  0.38374971  0.71289714     0.22000
C1909       C  0.81176336  0.36543923  0.71826724    -0.34200
C1910       C  0.83201915  0.36382371  0.71951208     0.16100
O1911       O  0.86281067  0.37459082  0.71877414    -0.26300
C1912       C  0.86220805  0.35583519  0.72372114     0.05900
C1913       C  0.84343050  0.34836817  0.72436759    -0.31100
O1914       O  0.78607841  0.38857873  0.71187959    -0.23000
C1915       C  0.78627570  0.40720696  0.70663728    -0.03000
C1916       C  0.80499674  0.41460159  0.70421772    -0.17400
H1917       H  0.84667594  0.40979496  0.70749106     0.20600
H1918       H  0.80219805  0.35334159  0.72150540     0.19000
H1919       H  0.83886340  0.33378111  0.72820369     0.18900
H1920       H  0.80925459  0.42935553  0.70070801     0.14800
C1921       C  0.71231723  0.36265164  0.65032738     0.30200
C1922       C  0.70391917  0.35405229  0.63378694    -0.36100
C1923       C  0.70786474  0.33419629  0.63103676     0.16200
C1924       C  0.71962613  0.32373781  0.64350530     0.22000
C1925       C  0.72782609  0.33224399  0.66010786    -0.34200
C1926       C  0.72348397  0.35190232  0.66310121     0.16100
O1927       O  0.71073258  0.38102161  0.65568499    -0.26300
C1928       C  0.72059533  0.38181483  0.67232189     0.05900
C1929       C  0.72877725  0.36415580  0.67769282    -0.31100
O1930       O  0.72127901  0.30539649  0.63837007    -0.23000
C1931       C  0.71026428  0.30390701  0.62253855    -0.03000
C1932       C  0.70146826  0.32135542  0.61726207    -0.17400
H1933       H  0.69480423  0.36221923  0.62387855     0.20600
H1934       H  0.73675197  0.32401147  0.67015139     0.19000
H1935       H  0.73785659  0.36102201  0.69017975     0.18900
H1936       H  0.69160353  0.32406916  0.60530140     0.14800
C1937       C  0.48552934  0.27536616  0.77659733     0.30200
C1938       C  0.49546186  0.25754726  0.77619107    -0.36100
C1939       C  0.51584966  0.25865631  0.77571951     0.16200
C1940       C  0.52590117  0.27605357  0.77589159     0.22000
C1941       C  0.51595248  0.29390030  0.77599875    -0.34200
C1942       C  0.49553731  0.29278988  0.77623282     0.16100
O1943       O  0.46649688  0.27775725  0.77801636    -0.26300
C1944       C  0.46428378  0.29699103  0.77828824     0.05900
C1945       C  0.48184869  0.30703937  0.77712782    -0.31100
O1946       O  0.54498310  0.27356719  0.77658793    -0.23000
C1947       C  0.54712492  0.25429999  0.77658178    -0.03000
C1948       C  0.52948560  0.24435988  0.77597658    -0.17400
H1949       H  0.48784415  0.24376298  0.77660059     0.20600
H1950       H  0.52357923  0.30768544  0.77626515     0.19000
H1951       H  0.48421120  0.32260891  0.77768867     0.18900
H1952       H  0.52706019  0.22880018  0.77645077     0.14800
C1953       C  0.62715862  0.23129184  0.70054259     0.30200
C1954       C  0.62606097  0.23374950  0.68022344    -0.36100
C1955       C  0.64393878  0.23583195  0.67037917     0.16200
C1956       C  0.66164546  0.23525745  0.67983413     0.22000
C1957       C  0.66273032  0.23296671  0.70005269    -0.34200
C1958       C  0.64494366  0.23116525  0.70986909     0.16100
O1959       O  0.61237546  0.22963007  0.71286395    -0.26300
C1960       C  0.62097827  0.22864864  0.73021858     0.05900
C1961       C  0.64112780  0.22960020  0.72917368    -0.31100
O1962       O  0.67654719  0.23746421  0.66791657    -0.23000
C1963       C  0.66836359  0.23966442  0.65053559    -0.03000
C1964       C  0.64809434  0.23885483  0.65117767    -0.17400
H1965       H  0.61226617  0.23426186  0.67265702     0.20600
H1966       H  0.67651234  0.23285544  0.70766083     0.19000
H1967       H  0.65146074  0.22941180  0.74105648     0.18900
H1968       H  0.63794124  0.24027001  0.63922892     0.14800
C1969       C  0.66625806  0.16941348  0.80191416     0.30200
C1970       C  0.67365709  0.15103410  0.80712728    -0.36100
C1971       C  0.69384588  0.14852303  0.80496244     0.16200
C1972       C  0.70574931  0.16302016  0.79777245     0.22000
C1973       C  0.69843983  0.18146618  0.79296972    -0.34200
C1974       C  0.67839047  0.18408679  0.79550835     0.16100
O1975       O  0.64780633  0.17475858  0.80205611    -0.26300
C1976       C  0.64822988  0.19320046  0.79605809     0.05900
C1977       C  0.66688054  0.19982165  0.79191506    -0.31100
O1978       O  0.72403758  0.15752302  0.79644883    -0.23000
C1979       C  0.72405938  0.13935809  0.80316680    -0.03000
C1980       C  0.70568154  0.13296122  0.80884210    -0.17400
H1981       H  0.66431900  0.13948723  0.81238864     0.20600
H1982       H  0.70775410  0.19296478  0.78755448     0.19000
H1983       H  0.67118958  0.21388154  0.78625376     0.18900
H1984       H  0.70166737  0.11896782  0.81485745     0.14800
C1985       C  0.24496943  0.03727414  0.27706885     0.30200
C1986       C  0.24503749  0.01697411  0.27951496    -0.36100
C1987       C  0.24354419  0.00586645  0.26245898     0.16200
C1988       C  0.24232388  0.01419574  0.24423009     0.22000
C1989       C  0.24205620  0.03451852  0.24180145    -0.34200
C1990       C  0.24333874  0.04564281  0.25889193     0.16100
O1991       O  0.24556198  0.05031537  0.29109813    -0.26300
C1992       C  0.24418306  0.06731701  0.28189512     0.05900
C1993       C  0.24270303  0.06532894  0.26178678    -0.31100
O1994       O  0.24099626  0.00108435  0.23027995    -0.23000
C1995       C  0.24118934  0.98412146  0.23966791    -0.03000
C1996       C  0.24265341  0.98619592  0.25975810    -0.17400
H1997       H  0.24591101  0.01031521  0.29376422     0.20600
H1998       H  0.24069369  0.04117734  0.22759518     0.19000
H1999       H  0.24091311  0.07665438  0.25098907     0.18900
H2000       H  0.24293161  0.97488882  0.27072585     0.14800
C2001       C  0.52343197  0.77345759  0.25089695     0.30200
C2002       C  0.51366601  0.79130495  0.25217254    -0.36100
C2003       C  0.49332795  0.79042767  0.25094549     0.16200
C2004       C  0.48322322  0.77323606  0.24842306     0.22000
C2005       C  0.49296202  0.75534477  0.24753050    -0.34200
C2006       C  0.51329485  0.75620613  0.24896160     0.16100
O2007       O  0.54247139  0.77090871  0.25084172    -0.26300
C2008       C  0.54448006  0.75173591  0.24919917     0.05900
C2009       C  0.52684230  0.74187779  0.24802104    -0.31100
O2010       O  0.46436307  0.77602188  0.24613481    -0.23000
C2011       C  0.46241058  0.79523363  0.24741219    -0.03000
C2012       C  0.47990912  0.80489203  0.25056655    -0.17400
H2013       H  0.52139450  0.80496203  0.25356484     0.20600
H2014       H  0.48527556  0.74175460  0.24541266     0.19000
H2015       H  0.52441404  0.72642564  0.24611504     0.18900
H2016       H  0.48246778  0.82041286  0.25146642     0.14800
C2017       C  0.34498499  0.87984076  0.21711676     0.30200
C2018       C  0.33761250  0.89814207  0.21162587    -0.36100
C2019       C  0.31743946  0.90066128  0.21383745     0.16200
C2020       C  0.30559876  0.88621928  0.22126202     0.22000
C2021       C  0.31284419  0.86785094  0.22618502    -0.34200
C2022       C  0.33282548  0.86524074  0.22365980     0.16100
O2023       O  0.36343691  0.87457858  0.21745156    -0.26300
C2024       C  0.36288319  0.85629372  0.22388242     0.05900
C2025       C  0.34424145  0.84965820  0.22778820    -0.31100
O2026       O  0.28740837  0.89173803  0.22290723    -0.23000
C2027       C  0.28733601  0.90985179  0.21616603    -0.03000
C2028       C  0.30558881  0.91623851  0.21009946    -0.17400
H2029       H  0.34696348  0.90966557  0.20632973     0.20600
H2030       H  0.30355419  0.85645905  0.23186431     0.19000
H2031       H  0.33988566  0.83575960  0.23380464     0.18900
H2032       H  0.30951859  0.93023259  0.20402735     0.14800
C2033       C  0.34751044  0.80795502  0.33956268     0.30200
C2034       C  0.34778924  0.80594406  0.31934878    -0.36100
C2035       C  0.36504662  0.81144429  0.31010036     0.16200
C2036       C  0.38096751  0.81889625  0.31982382     0.22000
C2037       C  0.38081268  0.82062721  0.34021876    -0.34200
C2038       C  0.36357361  0.81468805  0.34959221     0.16100
O2039       O  0.33286798  0.80338673  0.35106737    -0.26300
C2040       C  0.33968338  0.80689917  0.36878269     0.05900
C2041       C  0.35872770  0.81385830  0.36881318    -0.31100
O2042       O  0.39539535  0.82350151  0.30785692    -0.23000
C2043       C  0.38851048  0.81851150  0.29043851    -0.03000
C2044       C  0.36983662  0.81088705  0.29106391    -0.17400
H2045       H  0.33543826  0.80030820  0.31137098     0.20600
H2046       H  0.39324596  0.82605169  0.34821135     0.19000
H2047       H  0.36763343  0.81774087  0.38120059     0.18900
H2048       H  0.36094401  0.80590392  0.27905549     0.14800
C2049       C  0.21521725  0.83269212  0.13741571     0.30200
C2050       C  0.21316900  0.85305659  0.13697464    -0.36100
C2051       C  0.21779057  0.86293985  0.15429072     0.16200
C2052       C  0.22357753  0.85340696  0.17100013     0.22000
C2053       C  0.22591497  0.83315096  0.17134894    -0.34200
C2054       C  0.22175644  0.82335503  0.15395014     0.16100
O2055       O  0.21142423  0.82042389  0.12305295    -0.26300
C2056       C  0.21603371  0.80309939  0.13044059     0.05900
C2057       C  0.22264328  0.80410934  0.14953505    -0.31100
O2058       O  0.22696864  0.86540637  0.18558303    -0.23000
C2059       C  0.22364124  0.88291662  0.17806728    -0.03000
C2060       C  0.21797031  0.88231432  0.15862678    -0.17400
H2061       H  0.20839695  0.86065845  0.12404726     0.20600
H2062       H  0.23076644  0.82556310  0.18425595     0.19000
H2063       H  0.22687391  0.79224726  0.15899340     0.18900
H2064       H  0.21452487  0.89439161  0.14912413     0.14800
C2065       C  0.27103911  0.54279594  0.25975885     0.30200
C2066       C  0.27113493  0.53375064  0.24142882    -0.36100
C2067       C  0.27095334  0.51330017  0.24143560     0.16200
C2068       C  0.27095002  0.50238459  0.25829286     0.22000
C2069       C  0.27064521  0.51143726  0.27665300    -0.34200
C2070       C  0.27056468  0.53192241  0.27664148     0.16100
O2071       O  0.27195974  0.56173117  0.26314002    -0.26300
C2072       C  0.27182022  0.56306570  0.28247643     0.05900
C2073       C  0.27087743  0.54495984  0.29160169    -0.31100
O2074       O  0.27167923  0.48343670  0.25482229    -0.23000
C2075       C  0.27186799  0.48222035  0.23545608    -0.03000
C2076       C  0.27140922  0.50036399  0.22643288    -0.17400
H2077       H  0.27158856  0.54208166  0.22806474     0.20600
H2078       H  0.27072325  0.50310208  0.29002496     0.19000
H2079       H  0.27117319  0.54184625  0.30704353     0.18900
H2080       H  0.27196578  0.50356006  0.21101599     0.14800
C2081       C  0.29687454  0.72205944  0.37270239     0.30200
C2082       C  0.29321092  0.71428103  0.35422898    -0.36100
C2083       C  0.29391151  0.69399538  0.35277266     0.16200
C2084       C  0.29749562  0.68206577  0.36851670     0.22000
C2085       C  0.30148825  0.68990676  0.38704790    -0.34200
C2086       C  0.30124936  0.71034876  0.38842004     0.16100
O2087       O  0.29683140  0.74065137  0.37714130    -0.26300
C2088       C  0.30160738  0.74109042  0.39586501     0.05900
C2089       C  0.30468895  0.72266371  0.40374805    -0.31100
O2090       O  0.29655772  0.66342060  0.36386245    -0.23000
C2091       C  0.29270264  0.66353336  0.34483898    -0.03000
C2092       C  0.29101224  0.68215812  0.33717848    -0.17400
H2093       H  0.29003126  0.72344449  0.34183361     0.20600
H2094       H  0.30455230  0.68074219  0.39947053     0.19000
H2095       H  0.30855128  0.71892756  0.41854486     0.18900
H2096       H  0.28750862  0.68632925  0.32240584     0.14800
C2097       C  0.01645869  0.74772589  0.27388386     0.30200
C2098       C  0.99620500  0.74557955  0.27601253    -0.36100
C2099       C  0.98521239  0.76283282  0.27556729     0.16200
C2100       C  0.99359649  0.78091667  0.27309800     0.22000
C2101       C  0.01381662  0.78307102  0.27112954    -0.34200
C2102       C  0.02478508  0.76586888  0.27167053     0.16100
O2103       O  0.02957586  0.73368070  0.27460224    -0.26300
C2104       C  0.04651868  0.74298326  0.27294162     0.05900
C2105       C  0.04439474  0.76303077  0.27108884    -0.31100
O2106       O  0.98070381  0.79512735  0.27344973    -0.23000
C2107       C  0.96376489  0.78611690  0.27620653    -0.03000
C2108       C  0.96568879  0.76598582  0.27771842    -0.17400
H2109       H  0.98951670  0.73147585  0.27816318     0.20600
H2110       H  0.02056182  0.79722754  0.26957964     0.19000
H2111       H  0.05569724  0.77396097  0.27007441     0.18900
H2112       H  0.95441150  0.75530722  0.28036226     0.14800
C2113       C  0.15921732  0.72207870  0.17575417     0.30200
C2114       C  0.15300626  0.70801578  0.18929800    -0.36100
C2115       C  0.13805899  0.71378448  0.20206156     0.16200
C2116       C  0.13010389  0.73223000  0.20168502     0.22000
C2117       C  0.13591937  0.74603939  0.18786347    -0.34200
C2118       C  0.15059441  0.74020268  0.17500218     0.16100
O2119       O  0.17328620  0.72013170  0.16275137    -0.26300
C2120       C  0.17338192  0.73716337  0.15348052     0.05900
C2121       C  0.15951649  0.75011647  0.16040849    -0.31100
O2122       O  0.11818681  0.73543724  0.21634658    -0.23000
C2123       C  0.11800254  0.71870301  0.22603946    -0.03000
C2124       C  0.12996536  0.70459081  0.21774479    -0.17400
H2125       H  0.15968589  0.69377366  0.19015336     0.20600
H2126       H  0.12984257  0.76057012  0.18755715     0.19000
H2127       H  0.15653138  0.76475940  0.15541593     0.18900
H2128       H  0.13363825  0.69040517  0.22353522     0.14800
C2129       C  0.16838121  0.66415467  0.30307537     0.30200
C2130       C  0.17637371  0.64616920  0.30863560    -0.36100
C2131       C  0.19676054  0.64508492  0.30864672     0.16200
C2132       C  0.20834054  0.66059923  0.30325003     0.22000
C2133       C  0.20039530  0.67867522  0.29819612    -0.34200
C2134       C  0.18008409  0.67981476  0.29842748     0.16100
O2135       O  0.14973630  0.66815178  0.30107643    -0.26300
C2136       C  0.14954768  0.68666345  0.29536316     0.05900
C2137       C  0.16799785  0.69473089  0.29361443    -0.31100
O2138       O  0.22690316  0.65611363  0.30294878    -0.23000
C2139       C  0.22735291  0.63760144  0.30853094    -0.03000
C2140       C  0.20905890  0.62993021  0.31251280    -0.17400
H2141       H  0.16733211  0.63379329  0.31228496     0.20600
H2142       H  0.20942964  0.69087332  0.29394883     0.19000
H2143       H  0.17191265  0.70922045  0.28880504     0.18900
H2144       H  0.20536222  0.61523976  0.31683503     0.14800
C2145       C  0.26958056  0.00148822  0.76504293     0.30200
C2146       C  0.26946594  0.01118945  0.74703873    -0.36100
C2147       C  0.26926184  0.03163943  0.74780922     0.16200
C2148       C  0.26945969  0.04191223  0.76506548     0.22000
C2149       C  0.26928771  0.03221122  0.78306275    -0.34200
C2150       C  0.26921094  0.01176928  0.78229086     0.16100
O2151       O  0.27062245  0.98244844  0.76778970    -0.26300
C2152       C  0.27061597  0.98051389  0.78707927     0.05900
C2153       C  0.26967699  0.99828389  0.79679165    -0.31100
O2154       O  0.27030141  0.06096382  0.76234487    -0.23000
C2155       C  0.27033725  0.06293196  0.74306070    -0.03000
C2156       C  0.26963467  0.04515993  0.73332036    -0.17400
H2157       H  0.26982219  0.00336390  0.73339211     0.20600
H2158       H  0.26950606  0.04003602  0.79671056     0.19000
H2159       H  0.27010090  0.00089835  0.81231282     0.18900
H2160       H  0.27004087  0.04258232  0.71779173     0.14800
C2161       C  0.17838227  0.86252354  0.80179118     0.30200
C2162       C  0.19871082  0.86194225  0.80300715    -0.36100
C2163       C  0.20795348  0.87975903  0.80659753     0.16200
C2164       C  0.19797657  0.89699710  0.80927160     0.22000
C2165       C  0.17757417  0.89759369  0.80790703    -0.34200
C2166       C  0.16831458  0.87978396  0.80389406     0.16100
O2167       O  0.16687733  0.84760525  0.79815570    -0.26300
C2168       C  0.14919141  0.85540991  0.79767667     0.05900
C2169       C  0.14918252  0.87539351  0.80105207    -0.31100
O2170       O  0.20975854  0.91196038  0.81224800    -0.23000
C2171       C  0.22743427  0.90411356  0.81110406    -0.03000
C2172       C  0.22715062  0.88420590  0.80759866    -0.17400
H2173       H  0.20678519  0.84859169  0.80095243     0.20600
H2174       H  0.16952421  0.91101773  0.80951300     0.19000
H2175       H  0.13686680  0.88519400  0.80142872     0.18900
H2176       H  0.23940871  0.87447047  0.80587364     0.14800
C2177       C  0.27518659  0.76112662  0.00168712     0.30200
C2178       C  0.27774494  0.76059912  0.02196967    -0.36100
C2179       C  0.26069424  0.76070339  0.03322327     0.16200
C2180       C  0.24238989  0.76159276  0.02504741     0.22000
C2181       C  0.23982264  0.76208921  0.00475714    -0.34200
C2182       C  0.25687216  0.76167835  0.99349691     0.16100
O2183       O  0.28908351  0.75994937  0.98850032    -0.26300
C2184       C  0.27960823  0.75957705  0.97160906     0.05900
C2185       C  0.25949764  0.76062255  0.97381224    -0.31100
O2186       O  0.22845140  0.76089993  0.03822827    -0.23000
C2187       C  0.23788916  0.75940697  0.05509315    -0.03000
C2188       C  0.25801481  0.75916703  0.05287299    -0.17400
H2189       H  0.29203874  0.75959794  0.02850268     0.20600
H2190       H  0.22550056  0.76222133  0.99820443     0.19000
H2191       H  0.24844894  0.76000697  0.96261000     0.18900
H2192       H  0.26900648  0.75763747  0.06403920     0.14800
C2193       C  0.30401693  0.83104554  0.88963384     0.30200
C2194       C  0.30256971  0.85143695  0.89046619    -0.36100
C2195       C  0.29974811  0.86096662  0.87257344     0.16200
C2196       C  0.29873648  0.85115809  0.85506239     0.22000
C2197       C  0.30000870  0.83084861  0.85425130    -0.34200
C2198       C  0.30248348  0.82134134  0.87210244     0.16100
O2199       O  0.30617217  0.81902098  0.90454096    -0.26300
C2200       C  0.30573627  0.80148323  0.89631013     0.05900
C2201       C  0.30337260  0.80208233  0.87626007    -0.31100
O2202       O  0.29567344  0.86283956  0.84015777    -0.23000
C2203       C  0.29447496  0.88037609  0.84820614    -0.03000
C2204       C  0.29688992  0.88012159  0.86832926    -0.17400
H2205       H  0.30324161  0.85928225  0.90409979     0.20600
H2206       H  0.29876606  0.82296907  0.84067852     0.19000
H2207       H  0.30235558  0.78997852  0.86623008     0.18900
H2208       H  0.29629350  0.89224962  0.87836106     0.14800
C2209       C  0.36451161  0.72536290  0.85463001     0.30200
C2210       C  0.38290399  0.72000445  0.84731860    -0.36100
C2211       C  0.38497529  0.72053321  0.82696165     0.16200
C2212       C  0.36999039  0.72624695  0.81488067     0.22000
C2213       C  0.35157139  0.73101305  0.82210223    -0.34200
C2214       C  0.34944450  0.73021666  0.84228730     0.16100
O2215       O  0.35957463  0.72716993  0.87311557    -0.26300
C2216       C  0.34104972  0.73287880  0.87244741     0.05900
C2217       C  0.33395312  0.73484175  0.85366620    -0.31100
O2218       O  0.37524280  0.72712273  0.79656053    -0.23000
C2219       C  0.39374586  0.72159615  0.79664266    -0.03000
C2220       C  0.40066898  0.71704552  0.81512963    -0.17400
H2221       H  0.39485391  0.71618190  0.85683065     0.20600
H2222       H  0.33982603  0.73551693  0.81262632     0.19000
H2223       H  0.31974691  0.73988030  0.84910016     0.18900
H2224       H  0.41518697  0.71257632  0.81926552     0.14800
C2225       C  0.24264075  0.54420725  0.76187708     0.30200
C2226       C  0.24107467  0.53478217  0.77994318    -0.36100
C2227       C  0.24212738  0.51436786  0.77957656     0.16200
C2228       C  0.24429348  0.50384810  0.76260558     0.22000
C2229       C  0.24612311  0.51330054  0.74454834    -0.34200
C2230       C  0.24530904  0.53374630  0.74493988     0.16100
O2231       O  0.24116968  0.56312952  0.75873864    -0.26300
C2232       C  0.24313431  0.56485805  0.73953844     0.05900
C2233       C  0.24585082  0.54704813  0.73023523    -0.31100
O2234       O  0.24396952  0.48481755  0.76561237    -0.23000
C2235       C  0.24189084  0.48315653  0.78482359    -0.03000
C2236       C  0.24070868  0.50108427  0.79420638    -0.17400
H2237       H  0.23888486  0.54278450  0.79332283     0.20600
H2238       H  0.24775554  0.50527940  0.73110361     0.19000
H2239       H  0.24721809  0.54426135  0.71479462     0.18900
H2240       H  0.23850237  0.50388771  0.80954788     0.14800
C2241       C  0.33822277  0.67995950  0.72753797     0.30200
C2242       C  0.31790873  0.68092466  0.72651514    -0.36100
C2243       C  0.30833456  0.66334992  0.72268787     0.16200
C2244       C  0.31796886  0.64596916  0.71968516     0.22000
C2245       C  0.33835319  0.64495663  0.72097153    -0.34200
C2246       C  0.34795954  0.66254688  0.72513192     0.16100
O2247       O  0.35003444  0.69466794  0.73102952    -0.26300
C2248       C  0.36759803  0.68658182  0.73107587     0.05900
C2249       C  0.36720786  0.66661275  0.72760878    -0.31100
O2250       O  0.30590470  0.63135630  0.71618519    -0.23000
C2251       C  0.28841328  0.63959129  0.71733093    -0.03000
C2252       C  0.28907689  0.65937345  0.72137350    -0.17400
H2253       H  0.31009551  0.69441066  0.72870148     0.20600
H2254       H  0.34615164  0.63142895  0.71901317     0.19000
H2255       H  0.37935212  0.65661939  0.72689176     0.18900
H2256       H  0.27701777  0.66935949  0.72308275     0.14800
C2257       C  0.25676716  0.78740196  0.53152729     0.30200
C2258       C  0.27466472  0.78823798  0.52168870    -0.36100
C2259       C  0.27382878  0.78735555  0.50128364     0.16200
C2260       C  0.25658173  0.78596947  0.49111242     0.22000
C2261       C  0.23866661  0.78480353  0.50097682    -0.34200
C2262       C  0.23951610  0.78549524  0.52144174     0.16100
O2263       O  0.25412089  0.78902617  0.55053074    -0.26300
C2264       C  0.23490087  0.78793432  0.55274766     0.05900
C2265       C  0.22510829  0.78560778  0.53512116    -0.31100
O2266       O  0.25922277  0.78642659  0.47201174    -0.23000
C2267       C  0.27846281  0.78782278  0.46997782    -0.03000
C2268       C  0.28822207  0.78839813  0.48771800    -0.17400
H2269       H  0.28829455  0.78985799  0.52939584     0.20600
H2270       H  0.22499146  0.78381862  0.49324085     0.19000
H2271       H  0.20956278  0.78494836  0.53268842     0.18900
H2272       H  0.30368799  0.79000145  0.49023349     0.14800
C2273       C  0.21903063  0.72528482  0.65205381     0.30200
C2274       C  0.22312909  0.71742595  0.67043508    -0.36100
C2275       C  0.22280686  0.69708571  0.67169065     0.16200
C2276       C  0.21915291  0.68528499  0.65585354     0.22000
C2277       C  0.21473086  0.69318194  0.63752543    -0.34200
C2278       C  0.21460571  0.71356490  0.63635569     0.16100
O2279       O  0.21876581  0.74389009  0.64758613    -0.26300
C2280       C  0.21375391  0.74415605  0.62889580     0.05900
C2281       C  0.21079758  0.72573891  0.62110506    -0.31100
O2282       O  0.22028758  0.66662779  0.66020258    -0.23000
C2283       C  0.22434018  0.66651838  0.67913494    -0.03000
C2284       C  0.22600181  0.68504109  0.68708697    -0.17400
H2285       H  0.22634405  0.72652981  0.68286234     0.20600
H2286       H  0.21160542  0.68408225  0.62508133     0.19000
H2287       H  0.20685638  0.72191952  0.60635772     0.18900
H2288       H  0.22951804  0.68900081  0.70191298     0.14800
C2289       C  0.15258668  0.81517100  0.67370987     0.30200
C2290       C  0.13417398  0.81993438  0.68133273    -0.36100
C2291       C  0.13230531  0.81889471  0.70167166     0.16200
C2292       C  0.14747153  0.81316663  0.71350602     0.22000
C2293       C  0.16593085  0.80885199  0.70595868    -0.34200
C2294       C  0.16788307  0.81024472  0.68573286     0.16100
O2295       O  0.15740697  0.81441044  0.65513425    -0.26300
C2296       C  0.17611460  0.80933436  0.65532025     0.05900
C2297       C  0.18344669  0.80665728  0.67396710    -0.31100
O2298       O  0.14243847  0.81223900  0.73192731    -0.23000
C2299       C  0.12389839  0.81773724  0.73210043    -0.03000
C2300       C  0.11675987  0.82228919  0.71370238    -0.17400
H2301       H  0.12211440  0.82394057  0.67204261     0.20600
H2302       H  0.17789194  0.80449158  0.71522691     0.19000
H2303       H  0.19788738  0.80197729  0.67816588     0.18900
H2304       H  0.10224505  0.82694885  0.70976880     0.14800
C2305       C  0.76879111  0.00993531  0.74349794     0.30200
C2306       C  0.76861500  0.03020526  0.74067347    -0.36100
C2307       C  0.76828748  0.04166911  0.75758244     0.16200
C2308       C  0.76780555  0.03368508  0.77599798     0.22000
C2309       C  0.76801047  0.01341102  0.77883030    -0.34200
C2310       C  0.76867723  0.00195101  0.76192073     0.16100
O2311       O  0.77012440  0.99661107  0.72974680    -0.26300
C2312       C  0.77104895  0.97982922  0.73941460     0.05900
C2313       C  0.77022357  0.98225389  0.75952144    -0.31100
O2314       O  0.76818014  0.04704796  0.78976636    -0.23000
C2315       C  0.76908472  0.06385042  0.78011688    -0.03000
C2316       C  0.76923231  0.06140262  0.76000735    -0.17400
H2317       H  0.76924206  0.03659052  0.72628678     0.20600
H2318       H  0.76818177  0.00703571  0.79323663     0.19000
H2319       H  0.77112899  0.97118970  0.77069924     0.18900
H2320       H  0.77033195  0.07248382  0.74886395     0.14800
C2321       C  0.77253637  0.75827695  0.52506930     0.30200
C2322       C  0.77427982  0.75748688  0.50476941    -0.36100
C2323       C  0.75689097  0.75878734  0.49428646     0.16200
C2324       C  0.73899466  0.76092001  0.50315028     0.22000
C2325       C  0.73722405  0.76156793  0.52353672    -0.34200
C2326       C  0.75466098  0.76003686  0.53407018     0.16100
O2327       O  0.78693224  0.75680145  0.53755479    -0.26300
C2328       C  0.77826825  0.75740439  0.55484286     0.05900
C2329       C  0.75814044  0.75935737  0.55364794    -0.31100
O2330       O  0.72462218  0.76145906  0.49045708    -0.23000
C2331       C  0.73345856  0.75957747  0.47329001    -0.03000
C2332       C  0.75353328  0.75778648  0.47479555    -0.17400
H2333       H  0.78820736  0.75568290  0.49766535     0.20600
H2334       H  0.72324347  0.76283858  0.53065841     0.19000
H2335       H  0.74767725  0.75995790  0.56540683     0.18900
H2336       H  0.76403897  0.75565936  0.46325679     0.14800
C2337       C  0.80080721  0.86088501  0.65533783     0.30200
C2338       C  0.80713906  0.85303445  0.63750664    -0.36100
C2339       C  0.80485300  0.83282650  0.63532366     0.16200
C2340       C  0.79651698  0.82137558  0.64958391     0.22000
C2341       C  0.79051526  0.82912865  0.66742600    -0.34200
C2342       C  0.79321188  0.84913917  0.66976650     0.16100
O2343       O  0.80102776  0.87940841  0.66042629    -0.26300
C2344       C  0.79389557  0.87932133  0.67846426     0.05900
C2345       C  0.78892128  0.86090100  0.68506240    -0.31100
O2346       O  0.79552755  0.80297157  0.64460511    -0.23000
C2347       C  0.80358681  0.80239668  0.62704312    -0.03000
C2348       C  0.80978397  0.82053083  0.62044924    -0.17400
H2349       H  0.81340127  0.86202438  0.62618070     0.20600
H2350       H  0.78424169  0.82013237  0.67874794     0.19000
H2351       H  0.78235297  0.85690620  0.69882292     0.18900
H2352       H  0.81688778  0.82407098  0.60683766     0.14800
C2353       C  0.76080632  0.78323089  0.98968679     0.30200
C2354       C  0.77872361  0.78405284  0.99953151    -0.36100
C2355       C  0.77781520  0.78296575  0.01996980     0.16200
C2356       C  0.76049098  0.78137854  0.03003047     0.22000
C2357       C  0.74267393  0.78014868  0.02019464    -0.34200
C2358       C  0.74359902  0.78106962  0.99982825     0.16100
O2359       O  0.75800116  0.78517531  0.97071656    -0.26300
C2360       C  0.73874492  0.78395777  0.96876874     0.05900
C2361       C  0.72913415  0.78132730  0.98639968    -0.31100
O2362       O  0.76283980  0.78218600  0.04908727    -0.23000
C2363       C  0.78197124  0.78405989  0.05134299    -0.03000
C2364       C  0.79203157  0.78447311  0.03371940    -0.17400
H2365       H  0.79233186  0.78596183  0.99186462     0.20600
H2366       H  0.72899221  0.77912493  0.02789583     0.19000
H2367       H  0.71362752  0.78057277  0.98901340     0.18900
H2368       H  0.80745619  0.78658843  0.03139212     0.14800
C2369       C  0.52898744  0.77161801  0.75214716     0.30200
C2370       C  0.51968439  0.75344554  0.75299465    -0.36100
C2371       C  0.49925757  0.75379538  0.75329208     0.16200
C2372       C  0.48862895  0.77082213  0.75264141     0.22000
C2373       C  0.49794368  0.78902641  0.75218975    -0.34200
C2374       C  0.51839302  0.78868119  0.75203761     0.16100
O2375       O  0.54791436  0.77465049  0.75055364    -0.26300
C2376       C  0.54950073  0.79393903  0.74965610     0.05900
C2377       C  0.53160336  0.80340345  0.75063862    -0.31100
O2378       O  0.46967118  0.76764778  0.75163065    -0.23000
C2379       C  0.46815048  0.74832033  0.75188522    -0.03000
C2380       C  0.48609907  0.73899682  0.75301097    -0.17400
H2381       H  0.52779253  0.73994939  0.75288757     0.20600
H2382       H  0.48982687  0.80249857  0.75146854     0.19000
H2383       H  0.52871917  0.81885664  0.74962891     0.18900
H2384       H  0.48904559  0.72352510  0.75275149     0.14800
C2385       C  0.64527596  0.80810544  0.81274070     0.30200
C2386       C  0.66265757  0.80096294  0.82046656    -0.36100
C2387       C  0.66541876  0.80405110  0.84033023     0.16200
C2388       C  0.65176003  0.81303420  0.85200892     0.22000
C2389       C  0.63435257  0.82046537  0.84416722    -0.34200
C2390       C  0.63180779  0.81783918  0.82403731     0.16100
O2391       O  0.64009741  0.80694337  0.79444735    -0.26300
C2392       C  0.62322994  0.81629119  0.79372682     0.05900
C2393       C  0.61726712  0.82357880  0.81167578    -0.31100
O2394       O  0.65728926  0.81373681  0.87039068    -0.23000
C2395       C  0.67486350  0.80555433  0.87019154    -0.03000
C2396       C  0.68067163  0.79931350  0.85191396    -0.17400
H2397       H  0.67337741  0.79367838  0.81153820     0.20600
H2398       H  0.62369243  0.82787213  0.85305960     0.19000
H2399       H  0.60424022  0.83173659  0.81507323     0.18900
H2400       H  0.69396687  0.79189386  0.84789558     0.14800
C2401       C  0.70930831  0.88110148  0.71852137     0.30200
C2402       C  0.70180268  0.86262578  0.72283815    -0.36100
C2403       C  0.68150423  0.86110923  0.72332027     0.16200
C2404       C  0.66939366  0.87678665  0.72006202     0.22000
C2405       C  0.67693343  0.89523423  0.71527737    -0.34200
C2406       C  0.69731727  0.89670025  0.71450297     0.16100
O2407       O  0.72782195  0.88585933  0.71831789    -0.26300
C2408       C  0.72786181  0.90466299  0.71377229     0.05900
C2409       C  0.70930066  0.91225622  0.71100025    -0.31100
O2410       O  0.65086871  0.87226101  0.72237751    -0.23000
C2411       C  0.65115404  0.85339203  0.72686431    -0.03000
C2412       C  0.66981807  0.84565472  0.72753296    -0.17400
H2413       H  0.71117383  0.85035623  0.72597031     0.20600
H2414       H  0.66757480  0.90763033  0.71267817     0.19000
H2415       H  0.70525206  0.92712203  0.70773216     0.18900
H2416       H  0.67414322  0.83095572  0.73120400     0.14800
C2417       C  0.99021046  0.76672663  0.77191203     0.30200
C2418       C  0.99901179  0.78509473  0.77278628    -0.36100
C2419       C  0.01936145  0.78521823  0.77385700     0.16200
C2420       C  0.03039177  0.76844099  0.77422800     0.22000
C2421       C  0.02157011  0.75000499  0.77310118    -0.34200
C2422       C  0.00115360  0.74988055  0.77185328     0.16100
O2423       O  0.97135337  0.76329516  0.77203293    -0.26300
C2424       C  0.97010776  0.74399319  0.77184671     0.05900
C2425       C  0.98818989  0.73484078  0.77159212    -0.31100
O2426       O  0.04919074  0.77206873  0.77615976    -0.23000
C2427       C  0.05014746  0.79142961  0.77678888    -0.03000
C2428       C  0.03202677  0.80032186  0.77539192    -0.17400
H2429       H  0.99054936  0.79837141  0.77302774     0.20600
H2430       H  0.02998843  0.73670616  0.77354830     0.19000
H2431       H  0.99129216  0.71940738  0.77218616     0.18900
H2432       H  0.02865141  0.81569877  0.77593659     0.14800
C2433       C  0.89038244  0.73118075  0.69822206     0.30200
C2434       C  0.88649725  0.74408705  0.68287809    -0.36100
C2435       C  0.87100805  0.73896816  0.67062809     0.16200
C2436       C  0.85986698  0.72248854  0.67348277     0.22000
C2437       C  0.86410071  0.70931446  0.68850130    -0.34200
C2438       C  0.87984690  0.71422432  0.70052113     0.16100
O2439       O  0.90275427  0.73411807  0.71258316    -0.26300
C2440       C  0.90057600  0.71853099  0.72386974     0.05900
C2441       C  0.88660899  0.70560595  0.71703596    -0.31100
O2442       O  0.84532958  0.72118085  0.66102203    -0.23000
C2443       C  0.84742063  0.73685230  0.64985174    -0.03000
C2444       C  0.86322442  0.74837048  0.65503661    -0.17400
H2445       H  0.89456028  0.75746893  0.68100120     0.20600
H2446       H  0.85541182  0.69642897  0.69096417     0.19000
H2447       H  0.88093039  0.69279274  0.72422861     0.18900
H2448       H  0.86797644  0.76189711  0.64851528     0.14800
C2449       C  0.74304367  0.50383523  0.75377422     0.30200
C2450       C  0.74280680  0.51321200  0.77190887    -0.36100
C2451       C  0.74278030  0.53363636  0.77145735     0.16200
C2452       C  0.74263766  0.54420125  0.75437142     0.22000
C2453       C  0.74302110  0.53481087  0.73621384    -0.34200
C2454       C  0.74339352  0.51436463  0.73666694     0.16100
O2455       O  0.74241978  0.48485429  0.75078220    -0.26300
C2456       C  0.74265578  0.48317758  0.73148932     0.05900
C2457       C  0.74334007  0.50106680  0.72197559    -0.31100
O2458       O  0.74185548  0.56319577  0.75743138    -0.23000
C2459       C  0.74181244  0.56478477  0.77675142    -0.03000
C2460       C  0.74238726  0.54685597  0.78617452    -0.17400
H2461       H  0.74248837  0.50514763  0.78543796     0.20600
H2462       H  0.74287682  0.54286696  0.72267882     0.19000
H2463       H  0.74297754  0.50386133  0.70647595     0.18900
H2464       H  0.74200243  0.54398604  0.80166086     0.14800
C2465       C  0.84739024  0.66493065  0.79850000     0.30200
C2466       C  0.83876296  0.64753080  0.80498958    -0.36100
C2467       C  0.81853384  0.64606431  0.80244273     0.16200
C2468       C  0.80772421  0.66060545  0.79378280     0.22000
C2469       C  0.81625480  0.67809851  0.78769502    -0.34200
C2470       C  0.83633839  0.67969251  0.79055175     0.16100
O2471       O  0.86610679  0.66921308  0.79879172    -0.26300
C2472       C  0.86690306  0.68706801  0.79128161     0.05900
C2473       C  0.84882600  0.69436631  0.78602674    -0.31100
O2474       O  0.78920043  0.65608464  0.79228929    -0.23000
C2475       C  0.78794084  0.63853523  0.80033890    -0.03000
C2476       C  0.80571127  0.63155704  0.80708782    -0.17400
H2477       H  0.84723254  0.63592676  0.81143054     0.20600
H2478       H  0.80781399  0.68963142  0.78108579     0.19000
H2479       H  0.84550201  0.70816483  0.77919101     0.18900
H2480       H  0.80871871  0.61783333  0.81420160     0.14800
C2481       C  0.71964603  0.72256137  0.86956612     0.30200
C2482       C  0.72449509  0.71526723  0.85113832    -0.36100
C2483       C  0.72226277  0.69517869  0.84858607     0.16200
C2484       C  0.71610645  0.68297206  0.86330554     0.22000
C2485       C  0.71077988  0.69036422  0.88167353    -0.34200
C2486       C  0.71263779  0.71060906  0.88411652     0.16100
O2487       O  0.72089668  0.74086276  0.87503169    -0.26300
C2488       C  0.71430117  0.74086191  0.89323025     0.05900
C2489       C  0.70876017  0.72245287  0.89968533    -0.31100
O2490       O  0.71633474  0.66448719  0.85800382    -0.23000
C2491       C  0.72230633  0.66498742  0.83954444    -0.03000
C2492       C  0.72604275  0.68370459  0.83287959    -0.17400
H2493       H  0.72978728  0.72462396  0.83960832     0.20600
H2494       H  0.70571712  0.68097834  0.89327897     0.19000
H2495       H  0.70294601  0.71840860  0.91376130     0.18900
H2496       H  0.73156670  0.68809951  0.81878602     0.14800
C2497       C  0.90372258  0.94989648  0.69714205     0.30200
C2498       C  0.89041782  0.93837722  0.70752537    -0.36100
C2499       C  0.87067340  0.94270967  0.70459094     0.16200
C2500       C  0.86443320  0.95714687  0.69207955     0.22000
C2501       C  0.87770668  0.96873342  0.68185062    -0.34200
C2502       C  0.89739788  0.96459391  0.68499119     0.16100
O2503       O  0.92287711  0.94826131  0.69734537    -0.26300
C2504       C  0.92878931  0.96225528  0.68531930     0.05900
C2505       C  0.91356545  0.97286075  0.67728056    -0.31100
O2506       O  0.84532013  0.95824621  0.69098311    -0.23000
C2507       C  0.83922241  0.94452859  0.70317392    -0.03000
C2508       C  0.85433353  0.93442146  0.71209070    -0.17400
H2509       H  0.89511038  0.92680223  0.71712701     0.20600
H2510       H  0.87300797  0.98011436  0.67202484     0.19000
H2511       H  0.91431585  0.98468612  0.66688980     0.18900
H2512       H  0.85337598  0.92236205  0.72219325     0.14800
C2513       C  0.19425553  0.91922456  0.58137732     0.30200
C2514       C  0.20404605  0.90588248  0.59327037    -0.36100
C2515       C  0.20015606  0.88619079  0.58965519     0.16200
C2516       C  0.18731862  0.87996167  0.57551594     0.22000
C2517       C  0.17765047  0.89331139  0.56349976    -0.34200
C2518       C  0.18175027  0.91301657  0.56693519     0.16100
O2519       O  0.19517136  0.93836110  0.58265914    -0.26300
C2520       C  0.18325906  0.94446857  0.56870161     0.05900
C2521       C  0.17460509  0.92934471  0.55839016    -0.31100
O2522       O  0.18562815  0.86082283  0.57497396    -0.23000
C2523       C  0.19776388  0.85479246  0.58877738    -0.03000
C2524       C  0.20716621  0.86992679  0.59836180    -0.17400
H2525       H  0.21390315  0.91052530  0.60463825     0.20600
H2526       H  0.16756275  0.88867765  0.55233320     0.19000
H2527       H  0.16396911  0.93027660  0.54681720     0.18900
H2528       H  0.21752722  0.86903733  0.61018687     0.14800
C2529       C  0.06849233  0.97775636  0.63552188     0.30200
C2530       C  0.08866154  0.97418217  0.63457707    -0.36100
C2531       C  0.09820013  0.98061140  0.61757072     0.16200
C2532       C  0.08845707  0.98948937  0.60241088     0.22000
C2533       C  0.06849586  0.99332432  0.60350073    -0.34200
C2534       C  0.05912402  0.98734772  0.62057975     0.16100
O2535       O  0.05644236  0.97286178  0.64980888    -0.26300
C2536       C  0.03930858  0.97984732  0.64395857     0.05900
C2537       C  0.04023914  0.98904489  0.62596951    -0.31100
O2538       O  0.10001893  0.99426383  0.58785543    -0.23000
C2539       C  0.11754283  0.98872327  0.59379752    -0.03000
C2540       C  0.11736242  0.98021278  0.61222703    -0.17400
H2541       H  0.09638332  0.96702364  0.64628503     0.20600
H2542       H  0.06080303  0.00062980  0.59186333     0.19000
H2543       H  0.02847786  0.99554114  0.61775232     0.18900
H2544       H  0.12958217  0.97470124  0.62048611     0.14800
C2545       C  0.07369612  0.21179675  0.61753492     0.30200
C2546       C  0.08533106  0.22160367  0.63104914    -0.36100
C2547       C  0.08080922  0.21834525  0.65064208     0.16200
C2548       C  0.06598811  0.20615215  0.65663423     0.22000
C2549       C  0.05408572  0.19662327  0.64309493    -0.34200
C2550       C  0.05852665  0.20000050  0.62345992     0.16100
O2551       O  0.07617803  0.21170457  0.59852058    -0.26300
C2552       C  0.06229624  0.19984057  0.59219261     0.05900
C2553       C  0.05077962  0.19225546  0.60702726    -0.31100
O2554       O  0.06520300  0.20433158  0.67573601    -0.23000
C2555       C  0.07955773  0.21572683  0.68194116    -0.03000
C2556       C  0.08966556  0.22485840  0.66699738    -0.17400
H2557       H  0.09738659  0.23070814  0.62662054     0.20600
H2558       H  0.04254448  0.18687479  0.64753530     0.19000
H2559       H  0.03904762  0.18180686  0.60590979     0.18900
H2560       H  0.10217315  0.23436912  0.66804713     0.14800
C2561       C  0.11885306  0.07432133  0.55071019     0.30200
C2562       C  0.10059211  0.08188255  0.54572473    -0.36100
C2563       C  0.09814856  0.10191554  0.54841322     0.16200
C2564       C  0.11284876  0.11386765  0.55504737     0.22000
C2565       C  0.13110104  0.10620919  0.56040898    -0.34200
C2566       C  0.13340366  0.08597238  0.55816968     0.16100
O2567       O  0.12409333  0.05598005  0.54927436    -0.26300
C2568       C  0.14213900  0.05559984  0.55621454     0.05900
C2569       C  0.14874816  0.07384239  0.56213162    -0.31100
O2570       O  0.10764689  0.13238893  0.55519299    -0.23000
C2571       C  0.08925400  0.13213217  0.54902006    -0.03000
C2572       C  0.08256487  0.11355661  0.54472450    -0.17400
H2573       H  0.08907140  0.07274208  0.54008289     0.20600
H2574       H  0.14269221  0.11538182  0.56584680     0.19000
H2575       H  0.16275979  0.07759801  0.56825035     0.18900
H2576       H  0.06858137  0.10938586  0.53879900     0.14800
C2577       C  0.94258494  0.83714011  0.36867902     0.30200
C2578       C  0.95286389  0.84874136  0.38191654    -0.36100
C2579       C  0.94900490  0.84528409  0.40164971     0.16200
C2580       C  0.93577130  0.83155643  0.40801228     0.22000
C2581       C  0.92563131  0.81980141  0.39476654    -0.34200
C2582       C  0.92967318  0.82309586  0.37501514     0.16100
O2583       O  0.94339871  0.83837284  0.34953341    -0.26300
C2584       C  0.93101966  0.82476446  0.34354170     0.05900
C2585       C  0.92212296  0.81476311  0.35875450    -0.31100
O2586       O  0.93396641  0.83133272  0.42714999    -0.23000
C2587       C  0.94639154  0.84495397  0.43305236    -0.03000
C2588       C  0.95616749  0.85404016  0.41782625    -0.17400
H2589       H  0.96298273  0.85982673  0.37717180     0.20600
H2590       H  0.91519109  0.80901227  0.39949912     0.19000
H2591       H  0.91113829  0.80350939  0.35792412     0.18900
H2592       H  0.96670806  0.86571628  0.41858184     0.14800
C2593       C  0.96727692  0.93074195  0.59105318     0.30200
C2594       C  0.96553566  0.93069466  0.57075212    -0.36100
C2595       C  0.96287410  0.91244378  0.56205311     0.16200
C2596       C  0.96149404  0.89532796  0.57250859     0.22000
C2597       C  0.96329442  0.89537177  0.59288625    -0.34200
C2598       C  0.96641768  0.91364402  0.60158799     0.16100
O2599       O  0.97076582  0.94610304  0.60204378    -0.26300
C2600       C  0.97243845  0.93874909  0.61985804     0.05900
C2601       C  0.96985995  0.91864251  0.62045634    -0.31100
O2602       O  0.95929565  0.87989279  0.56115794    -0.23000
C2603       C  0.95960250  0.88736321  0.54327955    -0.03000
C2604       C  0.96184136  0.90744721  0.54300648    -0.17400
H2605       H  0.96670146  0.94391121  0.56227166     0.20600
H2606       H  0.96279521  0.88207775  0.60131038     0.19000
H2607       H  0.97067785  0.90909673  0.63295795     0.18900
H2608       H  0.96271536  0.91695715  0.53047266     0.14800
C2609       C  0.82201739  0.12615183  0.43879646     0.30200
C2610       C  0.81272541  0.13952901  0.42650708    -0.36100
C2611       C  0.81538178  0.15926483  0.43106239     0.16200
C2612       C  0.82658622  0.16555174  0.44649606     0.22000
C2613       C  0.83570115  0.15214858  0.45894208    -0.34200
C2614       C  0.83288942  0.13237751  0.45449133     0.16100
O2615       O  0.82197324  0.10700583  0.43690752    -0.26300
C2616       C  0.83284233  0.10086706  0.45170064     0.05900
C2617       C  0.83993446  0.11602527  0.46314310    -0.31100
O2618       O  0.82749976  0.18476562  0.44764845    -0.23000
C2619       C  0.81651479  0.19078919  0.43287275    -0.03000
C2620       C  0.80859730  0.17554251  0.42215037    -0.17400
H2621       H  0.80415318  0.13488774  0.41414311     0.20600
H2622       H  0.84451585  0.15679449  0.47113158     0.19000
H2623       H  0.84937781  0.11512411  0.47570984     0.18900
H2624       H  0.79938847  0.17637868  0.40940493     0.14800
C2625       C  0.89408946  0.97004758  0.47637481     0.30200
C2626       C  0.91204207  0.96211690  0.48181100    -0.36100
C2627       C  0.91383470  0.94194596  0.47987666     0.16200
C2628       C  0.89878253  0.93021395  0.47363017     0.22000
C2629       C  0.88078707  0.93821113  0.46798351    -0.34200
C2630       C  0.87917895  0.95857356  0.46934832     0.16100
O2631       O  0.88964094  0.98863414  0.47653462    -0.26300
C2632       C  0.87178837  0.98930833  0.46915988     0.05900
C2633       C  0.86445708  0.97103984  0.46432362    -0.31100
O2634       O  0.90362400  0.91160805  0.47351559    -0.23000
C2635       C  0.92211922  0.91160337  0.47932810    -0.03000
C2636       C  0.92923830  0.93006059  0.48339669    -0.17400
H2637       H  0.92391963  0.97112602  0.48691473     0.20600
H2638       H  0.86899616  0.92922963  0.46265322     0.19000
H2639       H  0.85044908  0.96751013  0.45806585     0.18900
H2640       H  0.94352395  0.93404459  0.48870877     0.14800
C2641       C  0.15398013  0.08556111  0.33497499     0.30200
C2642       C  0.14075002  0.07521304  0.34664346    -0.36100
C2643       C  0.12095060  0.07789281  0.34230724     0.16200
C2644       C  0.11456498  0.09007583  0.32766311     0.22000
C2645       C  0.12777531  0.10017195  0.31583517    -0.34200
C2646       C  0.14753618  0.09735747  0.32005025     0.16100
O2647       O  0.17313269  0.08588522  0.33687940    -0.26300
C2648       C  0.17897474  0.09792461  0.32285161     0.05900
C2649       C  0.16365748  0.10538816  0.31191681    -0.31100
O2650       O  0.09540816  0.09118681  0.32677482    -0.23000
C2651       C  0.08942295  0.07934249  0.34086528    -0.03000
C2652       C  0.10467273  0.07061115  0.35094831    -0.17400
H2653       H  0.14553067  0.06596947  0.35846515     0.20600
H2654       H  0.12297634  0.10982190  0.30434892     0.19000
H2655       H  0.16429245  0.11574384  0.30005434     0.18900
H2656       H  0.10384770  0.06080599  0.36325757     0.14800
C2657       C  0.94817533  0.06658120  0.38782320     0.30200
C2658       C  0.92770935  0.06736706  0.38754860    -0.36100
C2659       C  0.91823844  0.06206082  0.40495559     0.16200
C2660       C  0.92821272  0.05675577  0.42156908     0.22000
C2661       C  0.94853545  0.05570487  0.42175272    -0.34200
C2662       C  0.95792025  0.06062107  0.40434305     0.16100
O2663       O  0.96017995  0.07057577  0.37322080    -0.26300
C2664       C  0.97770338  0.06670785  0.38057513     0.05900
C2665       C  0.97707678  0.06048258  0.39978692    -0.31100
O2666       O  0.91658237  0.05261915  0.43627995    -0.23000
C2667       C  0.89885128  0.05500972  0.42897865    -0.03000
C2668       C  0.89895993  0.06074852  0.40952527    -0.17400
H2669       H  0.91972777  0.07161265  0.37465391     0.20600
H2670       H  0.95650576  0.05117028  0.43456124     0.19000
H2671       H  0.98913371  0.05644811  0.40908414     0.18900
H2672       H  0.88661447  0.06361202  0.40018638     0.14800
C2673       C  0.05270300  0.13227138  0.46381924     0.30200
C2674       C  0.05158692  0.11332045  0.45636588    -0.36100
C2675       C  0.04887201  0.11183435  0.43624312     0.16200
C2676       C  0.04713902  0.12791066  0.42432207     0.22000
C2677       C  0.04848845  0.14689957  0.43176856    -0.34200
C2678       C  0.05147931  0.14840010  0.45189397     0.16100
O2679       O  0.05446820  0.13694628  0.48226527    -0.26300
C2680       C  0.05477626  0.15627883  0.48217086     0.05900
C2681       C  0.05301559  0.16431474  0.46371013    -0.31100
O2682       O  0.04389323  0.12312514  0.40605064    -0.23000
C2683       C  0.04373169  0.10375633  0.40625488    -0.03000
C2684       C  0.04682372  0.09590823  0.42463701    -0.17400
H2685       H  0.05252471  0.10063039  0.46565658     0.20600
H2686       H  0.04710650  0.15959097  0.42254713     0.19000
H2687       H  0.05220540  0.17953153  0.45972465     0.18900
H2688       H  0.04705866  0.08073316  0.42887141     0.14800
C2689       C  0.89441255  0.07956346  0.83790843     0.30200
C2690       C  0.87511491  0.07456312  0.84248537    -0.36100
C2691       C  0.86059051  0.08420238  0.83186344     0.16200
C2692       C  0.86479942  0.09761664  0.81751534     0.22000
C2693       C  0.88409687  0.10258778  0.81291111    -0.34200
C2694       C  0.89861294  0.09318607  0.82375721     0.16100
O2695       O  0.91019122  0.07277695  0.84644714    -0.26300
C2696       C  0.92471735  0.08227660  0.83779828     0.05900
C2697       C  0.91837828  0.09521835  0.82357106    -0.31100
O2698       O  0.84900571  0.10542244  0.80993956    -0.23000
C2699       C  0.83446115  0.09705124  0.81965150    -0.03000
C2700       C  0.84079359  0.08365639  0.83345090    -0.17400
H2701       H  0.87166546  0.06421289  0.85384616     0.20600
H2702       H  0.88752887  0.11338930  0.80197247     0.19000
H2703       H  0.92705200  0.10474041  0.81449673     0.18900
H2704       H  0.83211354  0.07518356  0.84350715     0.14800
C2705       C  0.99394625  0.00609836  0.74953250     0.30200
C2706       C  0.99317928  0.00328401  0.76980098    -0.36100
C2707       C  0.99201321  0.02019972  0.78122376     0.16200
C2708       C  0.99191669  0.03861132  0.77321316     0.22000
C2709       C  0.99253461  0.04141776  0.75295358    -0.34200
C2710       C  0.99343327  0.02450399  0.74152703     0.16100
O2711       O  0.99425694  0.99231561  0.73616711    -0.26300
C2712       C  0.99378360  0.00195244  0.71933804     0.05900
C2713       C  0.99322700  0.02205942  0.72178450    -0.31100
O2714       O  0.99068247  0.05238744  0.78651806    -0.23000
C2715       C  0.98980389  0.04274887  0.80331931    -0.03000
C2716       C  0.99046377  0.02263177  0.80092324    -0.17400
H2717       H  0.99314473  0.98888466  0.77619594     0.20600
H2718       H  0.99203007  0.05579967  0.74653966     0.19000
H2719       H  0.99227081  0.03318762  0.71067449     0.18900
H2720       H  0.98984119  0.01148146  0.81203706     0.14800
C2721       C  0.19107611  0.12736085  0.94216037     0.30200
C2722       C  0.20097843  0.14079090  0.93045596    -0.36100
C2723       C  0.19760383  0.16044716  0.93466791     0.16200
C2724       C  0.18519965  0.16659823  0.94923820     0.22000
C2725       C  0.17551819  0.15313523  0.96117839    -0.34200
C2726       C  0.17902727  0.13342739  0.95706480     0.16100
O2727       O  0.19141822  0.10827313  0.94020281    -0.26300
C2728       C  0.17956830  0.10201596  0.95415805     0.05900
C2729       C  0.17153404  0.11700287  0.96517536    -0.31100
O2730       O  0.18359009  0.18575532  0.94994823    -0.23000
C2731       C  0.19534099  0.19183894  0.93579300    -0.03000
C2732       C  0.20445807  0.17673578  0.92589273    -0.17400
H2733       H  0.21038373  0.13624993  0.91869045     0.20600
H2734       H  0.16571059  0.15767567  0.97261329     0.19000
H2735       H  0.16115164  0.11594772  0.97697324     0.18900
H2736       H  0.21433989  0.17765366  0.91366246     0.14800
C2737       C  0.09497577  0.06237118  0.90628296     0.30200
C2738       C  0.08699818  0.06907104  0.88858855    -0.36100
C2739       C  0.06682609  0.06631097  0.88612070     0.16200
C2740       C  0.05551333  0.05715267  0.89995972     0.22000
C2741       C  0.06339085  0.05078031  0.91769361    -0.34200
C2742       C  0.08335980  0.05397542  0.92034895     0.16100
O2743       O  0.11348035  0.06306580  0.91157863    -0.26300
C2744       C  0.11357648  0.05543633  0.92944665     0.05900
C2745       C  0.09520943  0.04965519  0.93566604    -0.31100
O2746       O  0.03711860  0.05583695  0.89476467    -0.23000
C2747       C  0.03634884  0.06452614  0.87746715    -0.03000
C2748       C  0.05442220  0.07147338  0.87133775    -0.17400
H2749       H  0.09587338  0.07600254  0.87757099     0.20600
H2750       H  0.05450259  0.04390456  0.92873475     0.19000
H2751       H  0.09130825  0.04261839  0.94921238     0.18900
H2752       H  0.05786781  0.07921676  0.85805939     0.14800
C2753       C  0.07208321  0.84131563  0.86896950     0.30200
C2754       C  0.06067023  0.85162932  0.88236492    -0.36100
C2755       C  0.06420363  0.84763111  0.90205459     0.16200
C2756       C  0.07816093  0.83457901  0.90823790     0.22000
C2757       C  0.08943302  0.82408332  0.89482806    -0.34200
C2758       C  0.08574614  0.82793284  0.87511302     0.16100
O2759       O  0.07146308  0.84301905  0.84984722    -0.26300
C2760       C  0.08473311  0.83036391  0.84367239     0.05900
C2761       C  0.09406401  0.82057437  0.85874230    -0.31100
O2762       O  0.07967207  0.83393005  0.92738774    -0.23000
C2763       C  0.06636427  0.84661121  0.93348479    -0.03000
C2764       C  0.05623318  0.85544153  0.91836347    -0.17400
H2765       H  0.04994218  0.86217780  0.87777477     0.20600
H2766       H  0.10044402  0.81383007  0.89942535     0.19000
H2767       H  0.10554500  0.80984435  0.85775122     0.18900
H2768       H  0.04511842  0.86655466  0.91926962     0.14800
C2769       C  0.11259611  0.93133972  0.96941929     0.30200
C2770       C  0.12832089  0.94008914  0.95951501    -0.36100
C2771       C  0.13188070  0.95980447  0.96388905     0.16200
C2772       C  0.12082839  0.96991890  0.97726915     0.22000
C2773       C  0.10500462  0.96135245  0.98680287    -0.34200
C2774       C  0.10129341  0.94189795  0.98223644     0.16100
O2775       O  0.10674759  0.91304321  0.96799397    -0.26300
C2776       C  0.09133594  0.91218007  0.97977967     0.05900
C2777       C  0.08722678  0.92970013  0.98888852    -0.31100
O2778       O  0.12665463  0.98796570  0.97953275    -0.23000
C2779       C  0.14157414  0.98976412  0.96736081    -0.03000
C2780       C  0.14550019  0.97272584  0.95704604    -0.17400
H2781       H  0.13715087  0.93210092  0.94919834     0.20600
H2782       H  0.09616288  0.96935529  0.99710483     0.19000
H2783       H  0.07577784  0.93282841  0.99926102     0.18900
H2784       H  0.15662957  0.97026767  0.94616835     0.14800
C2785       C  0.11442630  0.96287711  0.18680786     0.30200
C2786       C  0.13316286  0.96826565  0.18064477    -0.36100
C2787       C  0.14865961  0.95882964  0.18995354     0.16200
C2788       C  0.14582249  0.94522969  0.20446688     0.22000
C2789       C  0.12711057  0.93973294  0.21050050    -0.34200
C2790       C  0.11162975  0.94899114  0.20105237     0.16100
O2791       O  0.09790197  0.96948865  0.17976649    -0.26300
C2792       C  0.08434917  0.95959161  0.18946573     0.05900
C2793       C  0.09201475  0.94658793  0.20291450    -0.31100
O2794       O  0.16227706  0.93826910  0.21127438    -0.23000
C2795       C  0.17587982  0.94738965  0.20095291    -0.03000
C2796       C  0.16830368  0.96031738  0.18734582    -0.17400
H2797       H  0.13547139  0.97891009  0.16926350     0.20600
H2798       H  0.12480034  0.92885334  0.22165371     0.19000
H2799       H  0.08429428  0.93667448  0.21242104     0.18900
H2800       H  0.17609786  0.96942767  0.17711778     0.14800
C2801       C  0.01638817  0.01805777  0.24563591     0.30200
C2802       C  0.01709253  0.03637244  0.25468614    -0.36100
C2803       C  0.01818984  0.03630555  0.27509573     0.16200
C2804       C  0.01871296  0.01939692  0.28592348     0.22000
C2805       C  0.01765265  0.00107136  0.27688803    -0.34200
C2806       C  0.01639526  0.00113708  0.25646177     0.16100
O2807       O  0.01677289  0.01472290  0.22669530    -0.26300
C2808       C  0.01678518  0.99539170  0.22531057     0.05900
C2809       C  0.01638618  0.98619573  0.24339177    -0.31100
O2810       O  0.02087785  0.02275350  0.30475338    -0.23000
C2811       C  0.02151225  0.04208883  0.30601642    -0.03000
C2812       C  0.01984553  0.05124669  0.28801081    -0.17400
H2813       H  0.01730861  0.04974421  0.24636538     0.20600
H2814       H  0.01826393  0.98768507  0.28516655     0.19000
H2815       H  0.01715246  0.97075911  0.24644909     0.18900
H2816       H  0.02039912  0.06667391  0.28485561     0.14800
C2817       C  0.04620759  0.91228603  0.10484876     0.30200
C2818       C  0.05112735  0.89406760  0.09675071    -0.36100
C2819       C  0.05155776  0.89307988  0.07626936     0.16200
C2820       C  0.04703649  0.90887630  0.06472715     0.22000
C2821       C  0.04254412  0.92707908  0.07277569    -0.34200
C2822       C  0.04248477  0.92814579  0.09312051     0.16100
O2823       O  0.04430430  0.91647223  0.12355309    -0.26300
C2824       C  0.03964153  0.93532807  0.12371664     0.05900
C2825       C  0.03845248  0.94333872  0.10518888    -0.31100
O2826       O  0.04735248  0.90469933  0.04604797    -0.23000
C2827       C  0.05250247  0.88605956  0.04537197    -0.03000
C2828       C  0.05550348  0.87800760  0.06375596    -0.17400
H2829       H  0.05421920  0.88153269  0.10576532     0.20600
H2830       H  0.03913824  0.93953158  0.06376126     0.19000
H2831       H  0.03455052  0.95806613  0.10119824     0.18900
H2832       H  0.05944421  0.86318964  0.06734797     0.14800
C2833       C  0.82332634  0.87845044  0.07733009     0.30200
C2834       C  0.83491997  0.89199290  0.06741569    -0.36100
C2835       C  0.83082160  0.91161778  0.07108562     0.16200
C2836       C  0.81643891  0.91759977  0.08377669     0.22000
C2837       C  0.80459687  0.90401954  0.09347028    -0.34200
C2838       C  0.80859370  0.88432714  0.08966805     0.16100
O2839       O  0.82544782  0.85940174  0.07690972    -0.26300
C2840       C  0.81179178  0.85290237  0.08899034     0.05900
C2841       C  0.80072699  0.86774349  0.09724965    -0.31100
O2842       O  0.81585657  0.93672187  0.08572691    -0.23000
C2843       C  0.82988320  0.94298605  0.07390896    -0.03000
C2844       C  0.83961615  0.92801089  0.06440103    -0.17400
H2845       H  0.84658829  0.88754121  0.05785135     0.20600
H2846       H  0.79337403  0.90846723  0.10355169     0.19000
H2847       H  0.78923541  0.86651856  0.10794568     0.18900
H2848       H  0.85178176  0.92905945  0.05445017     0.14800
C2849       C  0.91407045  0.97868364  0.12274247     0.30200
C2850       C  0.92167018  0.97166559  0.14045929    -0.36100
C2851       C  0.94204839  0.97242213  0.14241533     0.16200
C2852       C  0.95386713  0.98000909  0.12804540     0.22000
C2853       C  0.94635470  0.98665493  0.11032770    -0.34200
C2854       C  0.92617573  0.98547733  0.10821996     0.16100
O2855       O  0.89551622  0.97980222  0.11782484    -0.26300
C2856       C  0.89592165  0.98701980  0.09981258     0.05900
C2857       C  0.91459981  0.99069585  0.09306803    -0.31100
O2858       O  0.97230693  0.98011997  0.13295881    -0.23000
C2859       C  0.97260354  0.97218708  0.15058507    -0.03000
C2860       C  0.95418818  0.96692002  0.15728647    -0.17400
H2861       H  0.91237546  0.96609189  0.15188531     0.20600
H2862       H  0.95563676  0.99240362  0.09897499     0.19000
H2863       H  0.91894141  0.99688234  0.07924289     0.18900
H2864       H  0.95031734  0.96047971  0.17112907     0.14800
C2865       C  0.93743493  0.20857610  0.11842592     0.30200
C2866       C  0.92591699  0.21872602  0.13188355    -0.36100
C2867       C  0.93063504  0.21591831  0.15154465     0.16200
C2868       C  0.94552085  0.20383893  0.15756041     0.22000
C2869       C  0.95720040  0.19394738  0.14411850    -0.34200
C2870       C  0.95257458  0.19685434  0.12449839     0.16100
O2871       O  0.93511706  0.20830625  0.09936177    -0.26300
C2872       C  0.94907240  0.19637495  0.09323315     0.05900
C2873       C  0.96040398  0.18890926  0.10822335    -0.31100
O2874       O  0.94673544  0.20253806  0.17664939    -0.23000
C2875       C  0.93260307  0.21412730  0.18294099    -0.03000
C2876       C  0.92215316  0.22291151  0.16799706    -0.17400
H2877       H  0.91391963  0.22785027  0.12737844     0.20600
H2878       H  0.96881779  0.18435575  0.14864495     0.19000
H2879       H  0.97227636  0.17860871  0.10728891     0.18900
H2880       H  0.90973844  0.23253051  0.16912896     0.14800
C2881       C  0.96905385  0.13237254  0.96301379     0.30200
C2882       C  0.97457215  0.11451118  0.95492443    -0.36100
C2883       C  0.97288233  0.11297000  0.93471551     0.16200
C2884       C  0.96670239  0.12814317  0.92310283     0.22000
C2885       C  0.96091678  0.14603565  0.93126553    -0.34200
C2886       C  0.96211853  0.14741655  0.95165602     0.16100
O2887       O  0.96941177  0.13674195  0.98161590    -0.26300
C2888       C  0.96229666  0.15469967  0.98241091     0.05900
C2889       C  0.95734985  0.16214357  0.96422198    -0.31100
O2890       O  0.96676406  0.12349717  0.90444181    -0.23000
C2891       C  0.97263901  0.10500783  0.90428488    -0.03000
C2892       C  0.97658576  0.09771303  0.92269114    -0.17400
H2893       H  0.97968079  0.10255988  0.96382670     0.20600
H2894       H  0.95570813  0.15794948  0.92237725     0.19000
H2895       H  0.95140996  0.17631831  0.96078575     0.18900
H2896       H  0.98180567  0.08336422  0.92657274     0.14800
C2897       C  0.89401052  0.07294662  0.05877945     0.30200
C2898       C  0.91251759  0.08024220  0.05457758    -0.36100
C2899       C  0.91414579  0.10045878  0.05376357     0.16200
C2900       C  0.89856364  0.11280890  0.05653999     0.22000
C2901       C  0.87995742  0.10546513  0.06119669    -0.34200
C2902       C  0.87837921  0.08504960  0.06235343     0.16100
O2903       O  0.88935297  0.05445434  0.05940077    -0.26300
C2904       C  0.87056159  0.05442840  0.06381189     0.05900
C2905       C  0.86282296  0.07305466  0.06601315    -0.31100
O2906       O  0.90343711  0.13125658  0.05396835    -0.23000
C2907       C  0.92240233  0.13051323  0.04982931    -0.03000
C2908       C  0.92980386  0.11175351  0.04964317    -0.17400
H2909       H  0.92477862  0.07074976  0.05183894     0.20600
H2910       H  0.86759099  0.11494403  0.06348317     0.19000
H2911       H  0.84791403  0.07710692  0.06907041     0.18900
H2912       H  0.94448235  0.10709672  0.04633835     0.14800
C2913       C  0.68375925  0.90971910  0.95971299     0.30200
C2914       C  0.67968180  0.89026110  0.96453540    -0.36100
C2915       C  0.68920982  0.87608022  0.95331680     0.16200
C2916       C  0.70213650  0.88075644  0.93865389     0.22000
C2917       C  0.70630922  0.90016354  0.93393877    -0.34200
C2918       C  0.69653508  0.91430258  0.94489332     0.16100
O2919       O  0.67548693  0.92529759  0.96732338    -0.26300
C2920       C  0.68300119  0.93999016  0.95714096     0.05900
C2921       C  0.69620795  0.93400408  0.94303523    -0.31100
O2922       O  0.70877136  0.86529753  0.92947413    -0.23000
C2923       C  0.69986564  0.85048748  0.93820611    -0.03000
C2924       C  0.68752428  0.85629110  0.95318733    -0.17400
H2925       H  0.66930774  0.88646025  0.97574819     0.20600
H2926       H  0.71598223  0.90396295  0.92211656     0.19000
H2927       H  0.70392737  0.94284053  0.93252845     0.18900
H2928       H  0.67838485  0.84728956  0.96232405     0.14800
C2929       C  0.74423324  0.01269314  0.99919000     0.30200
C2930       C  0.76455691  0.01364224  0.99714880    -0.36100
C2931       C  0.77532473  0.01363732  0.01449596     0.16200
C2932       C  0.76666116  0.01312822  0.03261524     0.22000
C2933       C  0.74633692  0.01232352  0.03466036    -0.34200
C2934       C  0.73558768  0.01194541  0.01730891     0.16100
O2935       O  0.73150945  0.01102745  0.98492101    -0.26300
C2936       C  0.71448554  0.00904053  0.99398238     0.05900
C2937       C  0.71613365  0.00953831  0.01416398    -0.31100
O2938       O  0.77947877  0.01198370  0.04683813    -0.23000
C2939       C  0.79659232  0.01159060  0.03774882    -0.03000
C2940       C  0.79491200  0.01262697  0.01759412    -0.17400
H2941       H  0.77150639  0.01356356  0.98302016     0.20600
H2942       H  0.73943617  0.01124130  0.04877404     0.19000
H2943       H  0.70476186  0.00770788  0.02491077     0.18900
H2944       H  0.80637917  0.01191636  0.00681894     0.14800
C2945       C  0.57127318  0.20825269  0.86877012     0.30200
C2946       C  0.56015313  0.19789549  0.88239151    -0.36100
C2947       C  0.56529742  0.20048399  0.90196171     0.16200
C2948       C  0.58040426  0.21234347  0.90784580     0.22000
C2949       C  0.59129894  0.22301304  0.89422781    -0.34200
C2950       C  0.58606480  0.22052489  0.87462212     0.16100
O2951       O  0.56975776  0.20708056  0.84965250    -0.26300
C2952       C  0.58359564  0.21897008  0.84316156     0.05900
C2953       C  0.59409488  0.22783333  0.85804575    -0.31100
O2954       O  0.58329024  0.21172019  0.92686256    -0.23000
C2955       C  0.56971087  0.19941954  0.93317582    -0.03000
C2956       C  0.55808709  0.19208331  0.91832204    -0.17400
H2957       H  0.54861067  0.18812717  0.87801593     0.20600
H2958       H  0.60328190  0.23225308  0.89855952     0.19000
H2959       H  0.60642068  0.23755919  0.85678604     0.18900
H2960       H  0.54635739  0.18161947  0.91939116     0.14800
C2961       C  0.63384676  0.08056645  0.96654425     0.30200
C2962       C  0.63444808  0.10094937  0.96448024    -0.36100
C2963       C  0.61739715  0.11102404  0.96979024     0.16200
C2964       C  0.60080747  0.10162203  0.97616400     0.22000
C2965       C  0.60029409  0.08140474  0.97841028    -0.34200
C2966       C  0.61738468  0.07146046  0.97361443     0.16100
O2967       O  0.64810644  0.06810437  0.96288866    -0.26300
C2968       C  0.64062512  0.05098557  0.96815249     0.05900
C2969       C  0.62164849  0.05227591  0.97492236    -0.31100
O2970       O  0.58653392  0.11369917  0.98037793    -0.23000
C2971       C  0.59406646  0.13117174  0.97697904    -0.03000
C2972       C  0.61327546  0.13046092  0.97047391    -0.17400
H2973       H  0.64735980  0.10843858  0.95942750     0.20600
H2974       H  0.58752891  0.07395222  0.98387312     0.19000
H2975       H  0.61227902  0.04063202  0.97993099     0.18900
H2976       H  0.62278467  0.14250328  0.96689089     0.14800
C2977       C  0.61478822  0.08962383  0.19972566     0.30200
C2978       C  0.62756749  0.10132313  0.21048481    -0.36100
C2979       C  0.64745306  0.09768225  0.20771810     0.16200
C2980       C  0.65436360  0.08362239  0.19513134     0.22000
C2981       C  0.64157177  0.07165421  0.18467144    -0.34200
C2982       C  0.62167431  0.07521576  0.18752659     0.16100
O2983       O  0.59566600  0.09126599  0.19917025    -0.26300
C2984       C  0.59024591  0.07760178  0.18658299     0.05900
C2985       C  0.60579921  0.06709069  0.17898956    -0.31100
O2986       O  0.67353650  0.08360466  0.19387195    -0.23000
C2987       C  0.67892866  0.09767811  0.20601363    -0.03000
C2988       C  0.66332692  0.10684257  0.21509405    -0.17400
H2989       H  0.62239350  0.11278568  0.21995517     0.20600
H2990       H  0.64675627  0.06069439  0.17463314     0.19000
H2991       H  0.60548165  0.05566046  0.16816367     0.18900
H2992       H  0.66364533  0.11898896  0.22511560     0.14800
C2993       C  0.54805572  0.11158898  0.09050377     0.30200
C2994       C  0.54631548  0.11242537  0.07024284    -0.36100
C2995       C  0.55105442  0.13026450  0.06161196     0.16200
C2996       C  0.55753789  0.14619770  0.07199669     0.22000
C2997       C  0.55901197  0.14544576  0.09239208    -0.34200
C2998       C  0.55384803  0.12764221  0.10111977     0.16100
O2999       O  0.54388197  0.09645122  0.10153817    -0.26300
C3000       C  0.54674060  0.10293208  0.11951730     0.05900
C3001       C  0.55285849  0.12224996  0.12018230    -0.31100
O3002       O  0.56144273  0.16131192  0.06065539    -0.23000
C3003       C  0.55697725  0.15490835  0.04291959    -0.03000
C3004       C  0.55040070  0.13579480  0.04272702    -0.17400
H3005       H  0.54135719  0.10009641  0.06180404     0.20600
H3006       H  0.56362044  0.15788363  0.10086161     0.19000
H3007       H  0.55594109  0.13103723  0.13287772     0.18900
H3008       H  0.54599053  0.12714949  0.03031982     0.14800
C3009       C  0.36781446  0.94627953  0.82115885     0.30200
C3010       C  0.38690110  0.94174157  0.81548997    -0.36100
C3011       C  0.40172648  0.95148107  0.82553456     0.16200
C3012       C  0.39798158  0.96492962  0.83997874     0.22000
C3013       C  0.37890011  0.96934577  0.84575641    -0.34200
C3014       C  0.36408392  0.95944454  0.83586431     0.16100
O3015       O  0.35180355  0.93862464  0.81397275    -0.26300
C3016       C  0.33763752  0.94688828  0.82427143     0.05900
C3017       C  0.34439077  0.95992853  0.83817575    -0.31100
O3018       O  0.41400520  0.97217487  0.84755331    -0.23000
C3019       C  0.42820580  0.96313556  0.83798355    -0.03000
C3020       C  0.42146080  0.95003619  0.82412608    -0.17400
H3021       H  0.38996700  0.93119500  0.80421491     0.20600
H3022       H  0.37584391  0.97960341  0.85729648     0.19000
H3023       H  0.33603891  0.96835283  0.84853328     0.18900
H3024       H  0.42985382  0.94072730  0.81459348     0.14800
C3025       C  0.59622047  0.97709746  0.90938866     0.30200
C3026       C  0.58830646  0.96972882  0.89199135    -0.36100
C3027       C  0.56879866  0.97460006  0.88821496     0.16200
C3028       C  0.55804212  0.98619851  0.90058567     0.22000
C3029       C  0.56578415  0.99317906  0.91812674    -0.34200
C3030       C  0.58508995  0.98799272  0.92207165     0.16100
O3031       O  0.61438607  0.97522142  0.91538372    -0.26300
C3032       C  0.61468481  0.98461967  0.93233708     0.05900
C3033       C  0.59683712  0.99271065  0.93730885    -0.31100
O3034       O  0.54021008  0.98911067  0.89428453    -0.23000
C3035       C  0.53928446  0.97905758  0.87776558    -0.03000
C3036       C  0.55664236  0.96961193  0.87324212    -0.17400
H3037       H  0.59678694  0.96093999  0.88206292     0.20600
H3038       H  0.55733228  0.00206089  0.92800159     0.19000
H3039       H  0.59336769  0.00168093  0.94978316     0.18900
H3040       H  0.55971748  0.96024141  0.86096802     0.14800
C3041       C  0.32237387  0.12578346  0.08336914     0.30200
C3042       C  0.31179716  0.13922344  0.09447676    -0.36100
C3043       C  0.31495145  0.15887524  0.09003717     0.16200
C3044       C  0.32780566  0.16497932  0.07583893     0.22000
C3045       C  0.33824865  0.15151088  0.06457762    -0.34200
C3046       C  0.33492220  0.13181199  0.06886735     0.16100
O3047       O  0.32203698  0.10670738  0.08540022    -0.26300
C3048       C  0.33439271  0.10040477  0.07189735     0.05900
C3049       C  0.34278999  0.11536581  0.06111664    -0.31100
O3050       O  0.32895367  0.18412877  0.07467365    -0.23000
C3051       C  0.31646131  0.19028029  0.08813460    -0.03000
C3052       C  0.30731892  0.17521693  0.09809233    -0.17400
H3053       H  0.30193812  0.13469118  0.10587557     0.20600
H3054       H  0.34836074  0.15605562  0.05340697     0.19000
H3055       H  0.35349274  0.11427964  0.04961525     0.18900
H3056       H  0.29692080  0.17620481  0.10988243     0.14800
C3057       C  0.27637141  0.03377304  0.01411161     0.30200
C3058       C  0.26699601  0.03425813  0.99592512    -0.36100
C3059       C  0.24652371  0.03392127  0.99626391     0.16200
C3060       C  0.23591486  0.03338825  0.01330832     0.22000
C3061       C  0.24530567  0.03260126  0.03149778    -0.34200
C3062       C  0.26579708  0.03273833  0.03115454     0.16100
O3063       O  0.29535624  0.03480989  0.01721961    -0.26300
C3064       C  0.29704193  0.03419264  0.03654148     0.05900
C3065       C  0.27909051  0.03283665  0.04592323    -0.31100
O3066       O  0.21689929  0.03435845  0.01022765    -0.23000
C3067       C  0.21527856  0.03526139  0.99090309    -0.03000
C3068       C  0.23327452  0.03493071  0.98152329    -0.17400
H3069       H  0.27508929  0.03519733  0.98245040     0.20600
H3070       H  0.23720871  0.03228496  0.04499790     0.19000
H3071       H  0.27623299  0.03266535  0.06140928     0.18900
H3072       H  0.23618075  0.03605214  0.96608502     0.14800
C3073       C  0.42940506  0.05639914  0.10247881     0.30200
C3074       C  0.44977007  0.05519018  0.10177979    -0.36100
C3075       C  0.45962329  0.05939472  0.11915848     0.16200
C3076       C  0.45023904  0.06498729  0.13601983     0.22000
C3077       C  0.42979521  0.06610507  0.13674881    -0.34200
C3078       C  0.41987291  0.06138603  0.11944930     0.16100
O3079       O  0.41733463  0.05225691  0.08811066    -0.26300
C3080       C  0.39976670  0.05431016  0.09600036     0.05900
C3081       C  0.40045668  0.05995969  0.11547978    -0.31100
O3082       O  0.46249491  0.06824720  0.15055100    -0.23000
C3083       C  0.47987264  0.06425573  0.14290724    -0.03000
C3084       C  0.47890272  0.05866207  0.12347777    -0.17400
H3085       H  0.45738445  0.05082732  0.08872143     0.20600
H3086       H  0.42215593  0.06996616  0.14995189     0.19000
H3087       H  0.38840058  0.06243270  0.12530853     0.18900
H3088       H  0.49077560  0.05475586  0.11389300     0.14800
C3089       C  0.44170113  0.84067666  0.15398409     0.30200
C3090       C  0.45414415  0.84964894  0.14061361    -0.36100
C3091       C  0.45030144  0.84583509  0.12099531     0.16200
C3092       C  0.43512329  0.83420979  0.11480425     0.22000
C3093       C  0.42283486  0.82495208  0.12821180    -0.34200
C3094       C  0.42682448  0.82860523  0.14789155     0.16100
O3095       O  0.44236785  0.84260345  0.17305114    -0.26300
C3096       C  0.42790202  0.83138897  0.17923652     0.05900
C3097       C  0.41774918  0.82230617  0.16426443    -0.31100
O3098       O  0.43346473  0.83386017  0.09566755    -0.23000
C3099       C  0.44792314  0.84525328  0.08966840    -0.03000
C3100       C  0.45892972  0.85292599  0.10477868    -0.17400
H3101       H  0.46580891  0.85918825  0.14516679     0.20600
H3102       H  0.41082776  0.81584802  0.12364247     0.19000
H3103       H  0.40529279  0.81271465  0.16532682     0.18900
H3104       H  0.47095041  0.86307536  0.10393883     0.14800
C3105       C  0.46611075  0.91810690  0.92222917     0.30200
C3106       C  0.46078005  0.89984168  0.92978918    -0.36100
C3107       C  0.46177683  0.89793400  0.95011034     0.16200
C3108       C  0.46790456  0.91291300  0.96200672     0.22000
C3109       C  0.47271176  0.93125764  0.95452207    -0.34200
C3110       C  0.47142951  0.93324361  0.93431007     0.16100
O3111       O  0.46724136  0.92288446  0.90367116    -0.26300
C3112       C  0.47297807  0.94140096  0.90397112     0.05900
C3113       C  0.47565750  0.94866300  0.92262444    -0.31100
O3114       O  0.46870342  0.90780659  0.98041021    -0.23000
C3115       C  0.46273130  0.88941244  0.98046077    -0.03000
C3116       C  0.45800850  0.88245861  0.96204827    -0.17400
H3117       H  0.45648422  0.88789768  0.92047776     0.20600
H3118       H  0.47741736  0.94306989  0.96380189     0.19000
H3119       H  0.48079363  0.96292975  0.92687728     0.18900
H3120       H  0.45293126  0.86809521  0.95806009     0.14800
C3121       C  0.37989315  0.96123006  0.04829517     0.30200
C3122       C  0.38570633  0.94689116  0.03497482    -0.36100
C3123       C  0.39964709  0.93356640  0.04163075     0.16200
C3124       C  0.40761670  0.93438601  0.06004256     0.22000
C3125       C  0.40131554  0.94837206  0.07360806    -0.34200
C3126       C  0.38709001  0.96155172  0.06704118     0.16100
O3127       O  0.36861765  0.97629556  0.04446085    -0.26300
C3128       C  0.36807816  0.98614415  0.06112480     0.05900
C3129       C  0.37914776  0.97755274  0.07575154    -0.31100
O3130       O  0.42131499  0.92111025  0.06271321    -0.23000
C3131       C  0.42181812  0.91153788  0.04585983    -0.03000
C3132       C  0.40855565  0.91855059  0.03232114    -0.17400
H3133       H  0.38021801  0.94653401  0.02022663     0.20600
H3134       H  0.40745119  0.94926300  0.08807399     0.19000
H3135       H  0.38228614  0.98324806  0.09009125     0.18900
H3136       H  0.40610064  0.91347109  0.01761728     0.14800
C3137       C  0.68077279  0.16680950  0.57299375     0.30200
C3138       C  0.66989259  0.15283675  0.56278518    -0.36100
C3139       C  0.67495470  0.13331409  0.56621486     0.16200
C3140       C  0.68955840  0.12794880  0.57892586     0.22000
C3141       C  0.70056158  0.14185945  0.58886160    -0.34200
C3142       C  0.69562010  0.16127119  0.58532865     0.16100
O3143       O  0.67824422  0.18589166  0.57264752    -0.26300
C3144       C  0.69179453  0.19247456  0.58482420     0.05900
C3145       C  0.70301775  0.17780223  0.59300727    -0.31100
O3146       O  0.69123105  0.10895153  0.58074639    -0.23000
C3147       C  0.67768639  0.10197818  0.56887675    -0.03000
C3148       C  0.66715126  0.11643446  0.55936100    -0.17400
H3149       H  0.65814336  0.15686348  0.55311432     0.20600
H3150       H  0.71198177  0.13781881  0.59891717     0.19000
H3151       H  0.71468138  0.17912653  0.60350416     0.18900
H3152       H  0.65508941  0.11472517  0.54939082     0.14800
C3153       C  0.74599170  0.03200202  0.52927268     0.30200
C3154       C  0.76631151  0.03138264  0.53122030    -0.36100
C3155       C  0.77703057  0.03129990  0.51383876     0.16200
C3156       C  0.76835658  0.03146477  0.49573357     0.22000
C3157       C  0.74800650  0.03195817  0.49377254    -0.34200
C3158       C  0.73728978  0.03239164  0.51118265     0.16100
O3159       O  0.73327596  0.03330077  0.54361287    -0.26300
C3160       C  0.71617648  0.03464646  0.53463470     0.05900
C3161       C  0.71778649  0.03418286  0.51443622    -0.31100
O3162       O  0.78119048  0.03254418  0.48146799    -0.23000
C3163       C  0.79829307  0.03327604  0.49055953    -0.03000
C3164       C  0.79658601  0.03245738  0.51070681    -0.17400
H3165       H  0.77330289  0.03165322  0.54533239     0.20600
H3166       H  0.74103737  0.03267409  0.47965658     0.19000
H3167       H  0.70629595  0.03541142  0.50373536     0.18900
H3168       H  0.80803759  0.03337774  0.52147004     0.14800
C3169       C  0.36556925  0.09964381  0.70429044     0.30200
C3170       C  0.38492418  0.10458325  0.70859901    -0.36100
C3171       C  0.39928609  0.09423540  0.69842480     0.16200
C3172       C  0.39487289  0.07991177  0.68505908     0.22000
C3173       C  0.37552864  0.07512123  0.68060347    -0.34200
C3174       C  0.36117440  0.08557132  0.69065584     0.16100
O3175       O  0.34987280  0.10752917  0.71200002    -0.26300
C3176       C  0.33522948  0.09850485  0.70309180     0.05900
C3177       C  0.34138254  0.08473966  0.68959420    -0.31100
O3178       O  0.41053363  0.07211989  0.67721085    -0.23000
C3179       C  0.42519555  0.08164168  0.68553350    -0.03000
C3180       C  0.41908505  0.09562935  0.69883461    -0.17400
H3181       H  0.38852294  0.11578022  0.71907268     0.20600
H3182       H  0.37192808  0.06409183  0.66995285     0.19000
H3183       H  0.33256371  0.07552120  0.68036308     0.18900
H3184       H  0.42792221  0.10546103  0.70738829     0.14800
C3185       C  0.49436679  0.02104190  0.74014650     0.30200
C3186       C  0.49411695  0.00323265  0.75019112    -0.36100
C3187       C  0.49514122  0.00436814  0.77059023     0.16200
C3188       C  0.49611447  0.02179846  0.78052531     0.22000
C3189       C  0.49680764  0.03958244  0.77046485    -0.34200
C3190       C  0.49598349  0.03843733  0.75005707     0.16100
O3191       O  0.49226308  0.02350470  0.72115465    -0.26300
C3192       C  0.49279440  0.04275180  0.71885855     0.05900
C3193       C  0.49524189  0.05270947  0.73634598    -0.31100
O3194       O  0.49550533  0.01947689  0.79963862    -0.23000
C3195       C  0.49445657  0.00026015  0.80195872    -0.03000
C3196       C  0.49428467  0.99017609  0.78437925    -0.17400
H3197       H  0.49268636  0.98947478  0.74267158     0.20600
H3198       H  0.49740615  0.05338080  0.77802374     0.19000
H3199       H  0.49548090  0.06828186  0.73869489     0.18900
H3200       H  0.49285494  0.97465500  0.78210878     0.14800
C3201       C  0.58565279  0.05331978  0.60331448     0.30200
C3202       C  0.56558988  0.04980193  0.60358051    -0.36100
C3203       C  0.55568062  0.05578095  0.62036053     0.16200
C3204       C  0.56469743  0.06507413  0.63571371     0.22000
C3205       C  0.58489080  0.06836359  0.63556317    -0.34200
C3206       C  0.59492309  0.06195008  0.61890888     0.16100
O3207       O  0.59773141  0.04858249  0.58918279    -0.26300
C3208       C  0.61504962  0.05392059  0.59589989     0.05900
C3209       C  0.61423870  0.06227046  0.61434769    -0.31100
O3210       O  0.55231895  0.06999158  0.64963929    -0.23000
C3211       C  0.53529657  0.06334919  0.64318887    -0.03000
C3212       C  0.53658535  0.05432422  0.62513469    -0.17400
H3213       H  0.55822440  0.04273200  0.59157963     0.20600
H3214       H  0.59227608  0.07531371  0.64761437     0.19000
H3215       H  0.62614927  0.06773675  0.62308124     0.18900
H3216       H  0.52496306  0.04807382  0.61652825     0.14800
C3217       C  0.32066898  0.91751705  0.44021764     0.30200
C3218       C  0.30975913  0.90427612  0.42917621    -0.36100
C3219       C  0.31330567  0.88451817  0.43288709     0.16200
C3220       C  0.32674624  0.87819313  0.44640948     0.22000
C3221       C  0.33738323  0.89141849  0.45768291    -0.34200
C3222       C  0.33374171  0.91115091  0.45407423     0.16100
O3223       O  0.32050867  0.93664772  0.43846866    -0.26300
C3224       C  0.33349936  0.94254431  0.45153754     0.05900
C3225       C  0.34207593  0.92732583  0.46173880    -0.31100
O3226       O  0.32840184  0.85907930  0.44682373    -0.23000
C3227       C  0.31568839  0.85309295  0.43355192    -0.03000
C3228       C  0.30583242  0.86826413  0.42446676    -0.17400
H3229       H  0.29953591  0.90902866  0.41819102     0.20600
H3230       H  0.34803717  0.88666573  0.46825032     0.19000
H3231       H  0.35337861  0.92806850  0.47267565     0.18900
H3232       H  0.29509889  0.86742098  0.41297729     0.14800
C3233       C  0.24736154  0.01252798  0.52634655     0.30200
C3234       C  0.26763629  0.01128557  0.52870727    -0.36100
C3235       C  0.27880568  0.01199072  0.51160224     0.16200
C3236       C  0.27060186  0.01405750  0.49340441     0.22000
C3237       C  0.25029467  0.01532046  0.49104154    -0.34200
C3238       C  0.23908845  0.01429638  0.50814746     0.16100
O3239       O  0.23423025  0.01114034  0.54029971    -0.26300
C3240       C  0.21724672  0.01184137  0.53099603     0.05900
C3241       C  0.21937052  0.01375935  0.51091802    -0.31100
O3242       O  0.28370765  0.01339478  0.47933412    -0.23000
C3243       C  0.30053951  0.01074719  0.48860183    -0.03000
C3244       C  0.29834899  0.00980864  0.50872547    -0.17400
H3245       H  0.27422026  0.00930614  0.54288536     0.20600
H3246       H  0.24366349  0.01639214  0.47678991     0.19000
H3247       H  0.20806741  0.01422088  0.49996488     0.18900
H3248       H  0.30944723  0.00718367  0.51958524     0.14800
C3249       C  0.43988847  0.21191640  0.40516353     0.30200
C3250       C  0.42912407  0.22271904  0.39164747    -0.36100
C3251       C  0.43384007  0.21973447  0.37202820     0.16200
C3252       C  0.44802460  0.20686192  0.36597658     0.22000
C3253       C  0.45912412  0.19634865  0.37954576    -0.34200
C3254       C  0.45449518  0.19945770  0.39923474     0.16100
O3255       O  0.43712445  0.21164208  0.42416922    -0.26300
C3256       C  0.45028404  0.19899791  0.43056381     0.05900
C3257       C  0.46158266  0.19105116  0.41571242    -0.31100
O3258       O  0.44884840  0.20528145  0.34680803    -0.23000
C3259       C  0.43516797  0.21752390  0.34060838    -0.03000
C3260       C  0.42552437  0.22699506  0.35566548    -0.17400
H3261       H  0.41752572  0.23236917  0.39607967     0.20600
H3262       H  0.47017052  0.18608017  0.37507644     0.19000
H3263       H  0.47286189  0.18013058  0.41685267     0.18900
H3264       H  0.41345723  0.23704968  0.35468598     0.14800
C3265       C  0.46408796  0.13293065  0.56022251     0.30200
C3266       C  0.47003882  0.11482703  0.56754439    -0.36100
C3267       C  0.46821212  0.11223634  0.58767425     0.16200
C3268       C  0.46142511  0.12665260  0.59988545     0.22000
C3269       C  0.45504633  0.14470371  0.59247185    -0.34200
C3270       C  0.45647737  0.14716128  0.57216673     0.16100
O3271       O  0.46517306  0.13847295  0.54193614    -0.26300
C3272       C  0.45787163  0.15640026  0.54186984     0.05900
C3273       C  0.45197468  0.16259557  0.56027965    -0.31100
O3274       O  0.46208042  0.12140267  0.61838545    -0.23000
C3275       C  0.46894125  0.10324959  0.61789619    -0.03000
C3276       C  0.47290423  0.09676060  0.59916431    -0.17400
H3277       H  0.47588196  0.10360617  0.55819037     0.20600
H3278       H  0.44956841  0.15606912  0.60187541     0.19000
H3279       H  0.44590023  0.17653419  0.56435895     0.18900
H3280       H  0.47907034  0.08295897  0.59476238     0.14800
C3281       C  0.40381502  0.11172267  0.46556338     0.30200
C3282       C  0.38670896  0.10338162  0.45803684    -0.36100
C3283       C  0.38423842  0.08337273  0.46144777     0.16200
C3284       C  0.39756361  0.07252569  0.47183459     0.22000
C3285       C  0.41482313  0.08072061  0.47891228    -0.34200
C3286       C  0.41744853  0.10056241  0.47519506     0.16100
O3287       O  0.40865408  0.13030900  0.46505551    -0.26300
C3288       C  0.42579158  0.13087305  0.47406767     0.05900
C3289       C  0.43205577  0.11279319  0.48052964    -0.31100
O3290       O  0.39217666  0.05429932  0.47392591    -0.23000
C3291       C  0.37531220  0.05325124  0.46453367    -0.03000
C3292       C  0.36963367  0.07086495  0.45631073    -0.17400
H3293       H  0.37598802  0.11192718  0.45031186     0.20600
H3294       H  0.42538397  0.07223922  0.48693112     0.19000
H3295       H  0.44497905  0.10938123  0.48884778     0.18900
H3296       H  0.35667766  0.07397767  0.44793649     0.14800
C3297       C  0.62271318  0.96867643  0.34322903     0.30200
C3298       C  0.64169309  0.97272081  0.34977365    -0.36100
C3299       C  0.65685934  0.96388363  0.33926777     0.16200
C3300       C  0.65345764  0.95216136  0.32331718     0.22000
C3301       C  0.63458093  0.94813189  0.31683356    -0.34200
C3302       C  0.61948439  0.95666946  0.32746441     0.16100
O3303       O  0.60632880  0.97468828  0.35124300    -0.26300
C3304       C  0.59251936  0.96622252  0.34057135     0.05900
C3305       C  0.59986376  0.95482465  0.32560241    -0.31100
O3306       O  0.66951533  0.94486792  0.31595481    -0.23000
C3307       C  0.68350542  0.95183337  0.32731224    -0.03000
C3308       C  0.67655620  0.96380450  0.34212989    -0.17400
H3309       H  0.64440568  0.98173164  0.36239949     0.20600
H3310       H  0.63184981  0.93858664  0.30461713     0.19000
H3311       H  0.59190485  0.94623832  0.31507934     0.18900
H3312       H  0.68473092  0.97096771  0.35352226     0.14800
C3313       C  0.52325618  0.00407357  0.27345476     0.30200
C3314       C  0.52332579  0.00088660  0.25321469    -0.36100
C3315       C  0.52344714  0.01759739  0.24141593     0.16200
C3316       C  0.52321629  0.03614779  0.24907552     0.22000
C3317       C  0.52324534  0.03933443  0.26930213    -0.34200
C3318       C  0.52338780  0.02263325  0.28109474     0.16100
O3319       O  0.52403982  0.99055397  0.28707625    -0.26300
C3320       C  0.52485230  0.00050485  0.30371380     0.05900
C3321       C  0.52448326  0.02057475  0.30087808    -0.31100
O3322       O  0.52372224  0.04968970  0.23547925    -0.23000
C3323       C  0.52440941  0.03978564  0.21881784    -0.03000
C3324       C  0.52438055  0.01970100  0.22161382    -0.17400
H3325       H  0.52368673  0.98637635  0.24710478     0.20600
H3326       H  0.52354251  0.05384882  0.27541010     0.19000
H3327       H  0.52540868  0.03194128  0.31173923     0.18900
H3328       H  0.52523585  0.00836869  0.21071056     0.14800
C3329       C  0.46019632  0.98038555  0.40060695     0.30200
C3330       C  0.45213920  0.98482225  0.41881141    -0.36100
C3331       C  0.43181081  0.98474518  0.41990054     0.16200
C3332       C  0.42009805  0.98099882  0.40404434     0.22000
C3333       C  0.42821381  0.97623002  0.38579204    -0.34200
C3334       C  0.44868651  0.97587015  0.38479367     0.16100
O3335       O  0.47885954  0.98017286  0.39642563    -0.26300
C3336       C  0.47956280  0.97509020  0.37777451     0.05900
C3337       C  0.46121787  0.97203663  0.36969812    -0.31100
O3338       O  0.40138486  0.98254778  0.40832201    -0.23000
C3339       C  0.40121340  0.98696336  0.42723404    -0.03000
C3340       C  0.41973815  0.98843136  0.43517026    -0.17400
H3341       H  0.46114997  0.98821365  0.43128642     0.20600
H3342       H  0.41920861  0.97310695  0.37325345     0.19000
H3343       H  0.45765614  0.96825711  0.35483149     0.18900
H3344       H  0.42371691  0.99220150  0.44994333     0.14800
C3345       C  0.57934594  0.83412519  0.61788591     0.30200
C3346       C  0.59072097  0.82375443  0.63123724    -0.36100
C3347       C  0.58674285  0.82735666  0.65092133     0.16200
C3348       C  0.57273553  0.84040350  0.65707272     0.22000
C3349       C  0.56119350  0.85053355  0.64375756    -0.34200
C3350       C  0.56501807  0.84676952  0.62412420     0.16100
O3351       O  0.58107492  0.83376486  0.59875833    -0.26300
C3352       C  0.56750976  0.84619209  0.59281357     0.05900
C3353       C  0.55703228  0.85458315  0.60794446    -0.31100
O3354       O  0.57204582  0.84212547  0.67614255    -0.23000
C3355       C  0.58560968  0.82982081  0.68224875    -0.03000
C3356       C  0.59518573  0.82018667  0.66724548    -0.17400
H3357       H  0.60203657  0.81384141  0.62663316     0.20600
H3358       H  0.55022255  0.86082425  0.64835979     0.19000
H3359       H  0.54567674  0.86545539  0.60713363     0.18900
H3360       H  0.60696785  0.80979304  0.66825037     0.14800
C3361       C  0.55288230  0.89741860  0.45412807     0.30200
C3362       C  0.55520030  0.89751120  0.43380669    -0.36100
C3363       C  0.55090047  0.91515738  0.42436966     0.16200
C3364       C  0.54505585  0.93164465  0.43426554     0.22000
C3365       C  0.54239479  0.93144190  0.45446544    -0.34200
C3366       C  0.54633725  0.91376539  0.46380984     0.16100
O3367       O  0.55645162  0.88272238  0.46605842    -0.26300
C3368       C  0.55170398  0.88976368  0.48347370     0.05900
C3369       C  0.54523517  0.90891031  0.48288833    -0.31100
O3370       O  0.54190689  0.94657887  0.42262877    -0.23000
C3371       C  0.54551816  0.93954061  0.40497943    -0.03000
C3372       C  0.55108863  0.92004692  0.40514926    -0.17400
H3373       H  0.55998992  0.88475396  0.42591418     0.20600
H3374       H  0.53750856  0.94417014  0.46235230     0.19000
H3375       H  0.54092306  0.91810803  0.49493621     0.18900
H3376       H  0.55455507  0.91081070  0.39286890     0.14800
C3377       C  0.60978504  0.93395796  0.56225113     0.30200
C3378       C  0.61759093  0.94707456  0.57592618    -0.36100
C3379       C  0.63073946  0.96099343  0.56860199     0.16200
C3380       C  0.63556903  0.96205210  0.54912689     0.22000
C3381       C  0.62823458  0.94865336  0.53561955    -0.34200
C3382       C  0.61533265  0.93467108  0.54295545     0.16100
O3383       O  0.59667153  0.92023503  0.56561043    -0.26300
C3384       C  0.59406895  0.91199618  0.54824400     0.05900
C3385       C  0.60540360  0.92028183  0.53370085    -0.31100
O3386       O  0.64600169  0.97758053  0.54492605    -0.23000
C3387       C  0.64835838  0.98645174  0.56195526    -0.03000
C3388       C  0.63936397  0.97668570  0.57729369    -0.17400
H3389       H  0.61326915  0.94683216  0.59106389     0.20600
H3390       H  0.63179191  0.94951158  0.52030594     0.19000
H3391       H  0.60600332  0.91638700  0.51845249     0.18900
H3392       H  0.63776121  0.98149636  0.59220465     0.14800
C3393       C  0.31167941  0.38384057  0.59088809     0.30200
C3394       C  0.30665898  0.40303008  0.59567733    -0.36100
C3395       C  0.31700851  0.41763603  0.58592730     0.16200
C3396       C  0.33114433  0.41361952  0.57222539     0.22000
C3397       C  0.33622011  0.39440796  0.56747826    -0.34200
C3398       C  0.32601742  0.37978334  0.57740698     0.16100
O3399       O  0.30437112  0.36801769  0.59881400    -0.26300
C3400       C  0.31423058  0.35361770  0.59044988     0.05900
C3401       C  0.32790326  0.36002857  0.57696204    -0.31100
O3402       O  0.33907975  0.42951424  0.56502860    -0.23000
C3403       C  0.32999056  0.44387475  0.57431621    -0.03000
C3404       C  0.31615267  0.43737161  0.58756666    -0.17400
H3405       H  0.29570035  0.40632283  0.60648095     0.20600
H3406       H  0.34752349  0.39111612  0.55703271     0.19000
H3407       H  0.33798651  0.35144129  0.56844755     0.18900
H3408       H  0.30693262  0.44591789  0.59704498     0.14800
C3409       C  0.61354974  0.46424290  0.68274764     0.30200
C3410       C  0.63230692  0.46906470  0.67623766    -0.36100
C3411       C  0.64776338  0.46033438  0.68625610    -0.22200
C3412       C  0.64492596  0.44788000  0.70175764     0.22000
C3413       C  0.62613972  0.44299014  0.70822335    -0.34200
C3414       C  0.61065748  0.45152754  0.69802676     0.16100
O3415       O  0.59709600  0.47057985  0.67530176    -0.26300
C3416       C  0.58342487  0.46170871  0.68577701     0.05900
C3417       C  0.59097398  0.44955761  0.70010127    -0.31100
O3418       O  0.66141142  0.44090950  0.70861359    -0.23000
C3419       C  0.67499143  0.44887048  0.69729006    -0.03000
C3420       C  0.66735591  0.46114336  0.68312873    -0.17400
H3421       H  0.63466332  0.47873070  0.66402403     0.20600
H3422       H  0.62377173  0.43296617  0.72014060     0.19000
H3423       H  0.58313500  0.44071111  0.71052111     0.18900
H3424       H  0.67506011  0.46904594  0.67188128     0.14800
C3425       C  0.41276786  0.48220097  0.62148888     0.30200
C3426       C  0.42104747  0.47287596  0.63777273    -0.36100
C3427       C  0.44068425  0.47727754  0.64161050     0.16200
C3428       C  0.45110533  0.49030715  0.63041195     0.22000
C3429       C  0.44293615  0.49942338  0.61415116    -0.34200
C3430       C  0.42362011  0.49465091  0.61004278     0.16100
O3431       O  0.39477408  0.48022767  0.61499898    -0.26300
C3432       C  0.39443080  0.49120971  0.59900552     0.05900
C3433       C  0.41195474  0.50043343  0.59518142    -0.31100
O3434       O  0.46923516  0.49210135  0.63611298    -0.23000
C3435       C  0.47078189  0.47992430  0.65105145    -0.03000
C3436       C  0.45345741  0.47019015  0.65520562    -0.17400
H3437       H  0.41287856  0.46268537  0.64658987     0.20600
H3438       H  0.45124146  0.50926079  0.60506453     0.19000
H3439       H  0.41541260  0.51030700  0.58339547     0.18900
H3440       H  0.45082342  0.45923756  0.66621908     0.14800
C3441       C  0.57461902  0.33756471  0.40683280     0.30200
C3442       C  0.58584360  0.32701397  0.39347469    -0.36100
C3443       C  0.58209174  0.33069950  0.37376591     0.16200
C3444       C  0.56839274  0.34397916  0.36748830     0.22000
C3445       C  0.55685017  0.35424264  0.38086750    -0.34200
C3446       C  0.56050185  0.35043520  0.40062027     0.16100
O3447       O  0.57643928  0.33720731  0.42595840    -0.26300
C3448       C  0.56313453  0.34985070  0.43208847     0.05900
C3449       C  0.55272186  0.35841698  0.41697147    -0.31100
O3450       O  0.56832698  0.34602311  0.34834402    -0.23000
C3451       C  0.58203100  0.33369444  0.34237794    -0.03000
C3452       C  0.59091592  0.32370157  0.35755902    -0.17400
H3453       H  0.59705290  0.31699480  0.39810961     0.20600
H3454       H  0.54613896  0.36479760  0.37623892     0.19000
H3455       H  0.54156872  0.36949251  0.41789905     0.18900
H3456       H  0.60272860  0.31332074  0.35677879     0.14800
C3457       C  0.50442463  0.25442273  0.50013478     0.30200
C3458       C  0.52247471  0.26400714  0.50001435    -0.36100
C3459       C  0.52186358  0.28442584  0.50077396     0.16200
C3460       C  0.50468870  0.29480680  0.50131799     0.22000
C3461       C  0.48661051  0.28519661  0.50171467    -0.34200
C3462       C  0.48722699  0.26472938  0.50118999     0.16100
O3463       O  0.50161915  0.23544741  0.49868644    -0.26300
C3464       C  0.48235003  0.23347399  0.49907954     0.05900
C3465       C  0.47265652  0.25123329  0.50065475    -0.31100
O3466       O  0.50755305  0.31384984  0.50055245    -0.23000
C3467       C  0.52684678  0.31566955  0.49978374    -0.03000
C3468       C  0.53644803  0.29782173  0.50002016    -0.17400
H3469       H  0.53604796  0.25610939  0.49900884     0.20600
H3470       H  0.47301703  0.29311528  0.50198980     0.19000
H3471       H  0.45713040  0.25384749  0.50064967     0.18900
H3472       H  0.55191318  0.29510925  0.49882005     0.14800
C3473       C  0.54303320  0.41697393  0.60263514     0.30200
C3474       C  0.54854133  0.39894128  0.59458393    -0.36100
C3475       C  0.54895107  0.39795254  0.57413673     0.16200
C3476       C  0.54386747  0.41355441  0.56255597     0.22000
C3477       C  0.53877656  0.43160820  0.57055867    -0.34200
C3478       C  0.53873213  0.43268599  0.59089477     0.16100
O3479       O  0.54126961  0.42115430  0.62133067    -0.26300
C3480       C  0.53609757  0.43985729  0.62147094     0.05900
C3481       C  0.53442568  0.44778817  0.60295398    -0.31100
O3482       O  0.54427413  0.40931201  0.54390413    -0.23000
C3483       C  0.55005838  0.39085834  0.54335068    -0.03000
C3484       C  0.55337280  0.38298584  0.56172218    -0.17400
H3485       H  0.55212745  0.38654799  0.60361056     0.20600
H3486       H  0.53496425  0.44393628  0.56152882     0.19000
H3487       H  0.53024116  0.46244504  0.59898299     0.18900
H3488       H  0.55776909  0.36831255  0.56536787     0.14800
C3489       C  0.69260439  0.63064679  0.44823181     0.30200
C3490       C  0.70284581  0.64413804  0.43687585    -0.36100
C3491       C  0.69854956  0.66377015  0.44032045     0.16200
C3492       C  0.68506832  0.66983302  0.45393554     0.22000
C3493       C  0.67511432  0.65632861  0.46561485    -0.34200
C3494       C  0.67946812  0.63664663  0.46221376     0.16100
O3495       O  0.69330005  0.61154759  0.44643425    -0.26300
C3496       C  0.68061009  0.60520387  0.45960122     0.05900
C3497       C  0.67167677  0.62015920  0.46994996    -0.31100
O3498       O  0.68258564  0.68891176  0.45385698    -0.23000
C3499       C  0.69477696  0.69505824  0.44010114    -0.03000
C3500       C  0.70513087  0.68005809  0.43130895    -0.17400
H3501       H  0.71301108  0.63963617  0.42573890     0.20600
H3502       H  0.66436280  0.66080042  0.47619730     0.19000
H3503       H  0.66036248  0.61904414  0.48085008     0.18900
H3504       H  0.71561885  0.68100566  0.41959384     0.14800
C3505       C  0.61090216  0.43515550  0.47069045     0.30200
C3506       C  0.62940228  0.44281543  0.46624397    -0.36100
C3507       C  0.63094087  0.46323534  0.46623204     0.16200
C3508       C  0.61538743  0.47512448  0.47070619     0.22000
C3509       C  0.59688608  0.46751725  0.47472835    -0.34200
C3510       C  0.59528118  0.44721349  0.47437845     0.16100
O3511       O  0.60625272  0.41655863  0.47223654    -0.26300
C3512       C  0.58734345  0.41678014  0.47659610     0.05900
C3513       C  0.57973732  0.43545835  0.47801256    -0.31100
O3514       O  0.62017704  0.49364117  0.47113623    -0.23000
C3515       C  0.63897063  0.49382010  0.46655010    -0.03000
C3516       C  0.64650894  0.47532635  0.46309966    -0.17400
H3517       H  0.64175080  0.43352401  0.46328140     0.20600
H3518       H  0.58465765  0.47679626  0.47818189     0.19000
H3519       H  0.56507741  0.43972458  0.48185739     0.18900
H3520       H  0.66134313  0.47136656  0.45961408     0.14800
C3521       C  0.36863710  0.59967938  0.31583444     0.30200
C3522       C  0.38757523  0.60550903  0.31078893    -0.36100
C3523       C  0.40263908  0.59706831  0.32163589     0.16200
C3524       C  0.39917503  0.58356306  0.33610999     0.22000
C3525       C  0.38032136  0.57771779  0.34109990    -0.34200
C3526       C  0.36530641  0.58638999  0.33053586     0.16100
O3527       O  0.35236468  0.60665774  0.30856881    -0.26300
C3528       C  0.33852509  0.59782278  0.31885982     0.05900
C3529       C  0.34569608  0.58500814  0.33270986    -0.31100
O3530       O  0.41517325  0.57783642  0.34474317    -0.23000
C3531       C  0.42913253  0.58787156  0.33590309    -0.03000
C3532       C  0.42227963  0.60016511  0.32136564    -0.17400
H3533       H  0.39031046  0.61629350  0.29963762     0.20600
H3534       H  0.37754764  0.56753850  0.35279866     0.19000
H3535       H  0.33766566  0.57649785  0.34326579     0.18900
H3536       H  0.43048651  0.60996637  0.31215372     0.14800
C3537       C  0.55599135  0.56711662  0.40526020     0.30200
C3538       C  0.56344086  0.56190038  0.42351100    -0.36100
C3539       C  0.58368854  0.56286063  0.42543897     0.16200
C3540       C  0.59581344  0.56814213  0.41030503     0.22000
C3541       C  0.58831244  0.57368591  0.39211348    -0.34200
C3542       C  0.56798412  0.57314351  0.39030133     0.16100
O3543       O  0.53753403  0.56706315  0.40028194    -0.26300
C3544       C  0.53758522  0.57345870  0.38201818     0.05900
C3545       C  0.55610675  0.57762632  0.37500389    -0.31100
O3546       O  0.61435902  0.56704623  0.41507305    -0.23000
C3547       C  0.61404137  0.56137198  0.43359014    -0.03000
C3548       C  0.59536540  0.55865529  0.44085617    -0.17400
H3549       H  0.55409534  0.55735051  0.43535361     0.20600
H3550       H  0.59766552  0.57802966  0.38020967     0.19000
H3551       H  0.56019474  0.58283145  0.36071126     0.18900
H3552       H  0.59108996  0.55360827  0.45515908     0.14800
C3553       C  0.43537279  0.71048331  0.61999819     0.30200
C3554       C  0.42550198  0.72115536  0.63427157    -0.36100
C3555       C  0.43003568  0.71650136  0.65357943     0.16200
C3556       C  0.44318829  0.70217604  0.65861297     0.22000
C3557       C  0.45325726  0.69164110  0.64430826    -0.34200
C3558       C  0.44888260  0.69646094  0.62495194     0.16100
O3559       O  0.43284045  0.71195193  0.60104557    -0.26300
C3560       C  0.44507811  0.69887823  0.59374954     0.05900
C3561       C  0.45549204  0.68885177  0.60792169    -0.31100
O3562       O  0.44441955  0.69966688  0.67762757    -0.23000
C3563       C  0.43204206  0.71273228  0.68476550    -0.03000
C3564       C  0.42277069  0.72363511  0.67047843    -0.17400
H3565       H  0.41482921  0.73211759  0.63059012     0.20600
H3566       H  0.46354757  0.68031882  0.64799110     0.19000
H3567       H  0.46589419  0.67719413  0.60595275     0.18900
H3568       H  0.41179286  0.73478089  0.67229404     0.14800
C3569       C  0.50345461  0.79534226  0.52608997     0.30200
C3570       C  0.48493356  0.78668438  0.52671349    -0.36100
C3571       C  0.48443589  0.76627546  0.52533316     0.16200
C3572       C  0.50102125  0.75507602  0.52372987     0.22000
C3573       C  0.51953265  0.76374060  0.52284892    -0.34200
C3574       C  0.52000347  0.78416681  0.52398827     0.16100
O3575       O  0.50736823  0.81411176  0.52793986    -0.26300
C3576       C  0.52669212  0.81501135  0.52676729     0.05900
C3577       C  0.53527950  0.79680501  0.52423889    -0.31100
O3578       O  0.49722969  0.73620250  0.52393583    -0.23000
C3579       C  0.47791424  0.73528713  0.52540356    -0.03000
C3580       C  0.46921286  0.75357480  0.52622948    -0.17400
H3581       H  0.47184604  0.79523087  0.52850510     0.20600
H3582       H  0.53267202  0.75514864  0.52173314     0.19000
H3583       H  0.55061834  0.79333430  0.52341639     0.18900
H3584       H  0.45396299  0.75697826  0.52814928     0.14800
C3585       C  0.46113168  0.65635479  0.45277238     0.30200
C3586       C  0.47311773  0.65460328  0.43629649    -0.36100
C3587       C  0.46975725  0.63835604  0.42436689     0.16200
C3588       C  0.45577190  0.62454831  0.42850531     0.22000
C3589       C  0.44353160  0.62648200  0.44482766    -0.34200
C3590       C  0.44667346  0.64294172  0.45659681     0.16100
O3591       O  0.46289467  0.66946740  0.46671033    -0.26300
C3592       C  0.44901489  0.66479681  0.47939526     0.05900
C3593       C  0.43846869  0.64839788  0.47387356    -0.31100
O3594       O  0.45584997  0.61000241  0.41588405    -0.23000
C3595       C  0.46988986  0.61470938  0.40333000    -0.03000
C3596       C  0.47894849  0.63225874  0.40786081    -0.17400
H3597       H  0.48460895  0.66494317  0.43325049     0.20600
H3598       H  0.43260076  0.61568840  0.44834215     0.19000
H3599       H  0.42750704  0.64069934  0.48218692     0.18900
H3600       H  0.49087548  0.63926685  0.40031197     0.14800
C3601       C  0.40990366  0.60546501  0.55084696     0.30200
C3602       C  0.41007194  0.58529081  0.54816885    -0.36100
C3603       C  0.39296237  0.57545662  0.55318378     0.16200
C3604       C  0.37687351  0.58461015  0.56098656     0.22000
C3605       C  0.37667635  0.60493698  0.56363931    -0.34200
C3606       C  0.39367856  0.61492951  0.55799770     0.16100
O3607       O  0.42401016  0.61748557  0.54595953    -0.26300
C3608       C  0.41672482  0.63499128  0.54965005     0.05900
C3609       C  0.39788406  0.63435834  0.55718803    -0.31100
O3610       O  0.36249886  0.57227957  0.56469729    -0.23000
C3611       C  0.36946617  0.55518837  0.55870649    -0.03000
C3612       C  0.38828629  0.55638359  0.55141477    -0.17400
H3613       H  0.42252234  0.57782538  0.54203100     0.20600
H3614       H  0.36400636  0.61247566  0.56920393     0.19000
H3615       H  0.38856380  0.64644363  0.56110855     0.18900
H3616       H  0.39734952  0.54472973  0.54589239     0.14800
C3617       C  0.69468455  0.41680314  0.07848671     0.30200
C3618       C  0.70759407  0.40360250  0.08712797    -0.36100
C3619       C  0.70300371  0.38385633  0.08484432     0.16200
C3620       C  0.68679458  0.37749901  0.07482623     0.22000
C3621       C  0.67410206  0.39068808  0.06585082    -0.34200
C3622       C  0.67874847  0.41042635  0.06804798     0.16100
O3623       O  0.69554431  0.43593937  0.07969682    -0.26300
C3624       C  0.68010431  0.44184250  0.06967327     0.05900
C3625       C  0.66919330  0.42663109  0.06200514    -0.31100
O3626       O  0.68457854  0.35845275  0.07568853    -0.23000
C3627       C  0.69964513  0.35254863  0.08627659    -0.03000
C3628       C  0.71166130  0.36770606  0.09225285    -0.17400
H3629       H  0.72003708  0.40839657  0.09549647     0.20600
H3630       H  0.66123056  0.38592183  0.05813836     0.19000
H3631       H  0.65579977  0.42742857  0.05376308     0.18900
H3632       H  0.72443081  0.36698536  0.10143563     0.14800
C3633       C  0.56059312  0.69794439  0.12545334     0.30200
C3634       C  0.55541572  0.69307136  0.14464717    -0.36100
C3635       C  0.56610476  0.70229054  0.15941236     0.16200
C3636       C  0.58060896  0.71562963  0.15549779     0.22000
C3637       C  0.58574498  0.72051744  0.13635492    -0.34200
C3638       C  0.57529679  0.71108430  0.12162499     0.16100
O3639       O  0.55334636  0.69024988  0.10943675    -0.26300
C3640       C  0.56362753  0.69848709  0.09519857     0.05900
C3641       C  0.57747661  0.71159842  0.10192811    -0.31100
O3642       O  0.58899822  0.72222478  0.17139150    -0.23000
C3643       C  0.57994366  0.71287521  0.18572943    -0.03000
C3644       C  0.56553228  0.70024342  0.17918114    -0.17400
H3645       H  0.54422696  0.68246673  0.14782181     0.20600
H3646       H  0.59740143  0.73060363  0.13317716     0.19000
H3647       H  0.58800982  0.71979838  0.09356987     0.18900
H3648       H  0.55613727  0.69090855  0.18770607     0.14800
C3649       C  0.52373846  0.75988535  0.02265644     0.30200
C3650       C  0.52661819  0.78012480  0.02158275    -0.36100
C3651       C  0.50975931  0.79164331  0.02207003     0.16200
C3652       C  0.49136149  0.78368064  0.02317317     0.22000
C3653       C  0.48848657  0.76346594  0.02428652    -0.34200
C3654       C  0.50534143  0.75197782  0.02411431     0.16100
O3655       O  0.53748393  0.74656158  0.02362280    -0.26300
C3656       C  0.52783847  0.72988867  0.02585486     0.05900
C3657       C  0.50774700  0.73235101  0.02625676    -0.31100
O3658       O  0.47766925  0.79703660  0.02407170    -0.23000
C3659       C  0.48731546  0.81384029  0.02372731    -0.03000
C3660       C  0.50739596  0.81142008  0.02254116    -0.17400
H3661       H  0.54102871  0.78645270  0.02099889     0.20600
H3662       H  0.47411890  0.75717780  0.02574210     0.19000
H3663       H  0.49662988  0.72141118  0.02848209     0.18900
H3664       H  0.51856250  0.82253038  0.02249207     0.14800
C3665       C  0.63337767  0.58298168  0.06005574     0.30200
C3666       C  0.63384917  0.60345331  0.05960885    -0.36100
C3667       C  0.61579967  0.61277810  0.05695540     0.16200
C3668       C  0.59851092  0.60267517  0.05520368     0.22000
C3669       C  0.59807323  0.58234878  0.05546557    -0.34200
C3670       C  0.61603700  0.57309170  0.05775063     0.16100
O3671       O  0.64842547  0.57105759  0.06192930    -0.26300
C3672       C  0.64041725  0.55345304  0.06044461     0.05900
C3673       C  0.62042696  0.55391660  0.05778750    -0.31100
O3674       O  0.58340796  0.61413837  0.05245088    -0.23000
C3675       C  0.59105621  0.63187750  0.05222394    -0.03000
C3676       C  0.61115735  0.63196234  0.05491351    -0.17400
H3677       H  0.64731290  0.61151268  0.06088888     0.20600
H3678       H  0.58468159  0.57428316  0.05362219     0.19000
H3679       H  0.61055355  0.54175514  0.05612250     0.18900
H3680       H  0.62092165  0.64432333  0.05494864     0.14800
C3681       C  0.39934451  0.46502871  0.18894891     0.30200
C3682       C  0.38066720  0.47060056  0.18296444    -0.36100
C3683       C  0.36523446  0.46006352  0.19107897     0.16200
C3684       C  0.36800992  0.44524195  0.20435747     0.22000
C3685       C  0.38669826  0.43960974  0.21027518    -0.34200
C3686       C  0.40215320  0.45000506  0.20198953     0.16100
O3687       O  0.41582424  0.47236991  0.18257254    -0.26300
C3688       C  0.42937511  0.46187213  0.19153438     0.05900
C3689       C  0.42175902  0.44770879  0.20381407    -0.31100
O3690       O  0.35154654  0.43720075  0.20990509    -0.23000
C3691       C  0.33809145  0.44687642  0.19993669    -0.03000
C3692       C  0.34571958  0.46125473  0.18793583    -0.17400
H3693       H  0.37836368  0.48209494  0.17244441     0.20600
H3694       H  0.38902341  0.42774215  0.22036609     0.19000
H3695       H  0.42950859  0.43699426  0.21236295     0.18900
H3696       H  0.33802789  0.47102029  0.17826961     0.14800
C3697       C  0.49733244  0.52491281  0.28662292     0.30200
C3698       C  0.49719633  0.50632131  0.27800004    -0.36100
C3699       C  0.49789161  0.50578335  0.25751918     0.16200
C3700       C  0.49842282  0.52239329  0.24624714     0.22000
C3701       C  0.49888053  0.54095521  0.25486880    -0.34200
C3702       C  0.49841791  0.54148277  0.27533432     0.16100
O3703       O  0.49577323  0.52887131  0.30543990    -0.26300
C3704       C  0.49614309  0.54826451  0.30626073     0.05900
C3705       C  0.49785631  0.55681930  0.28793362    -0.31100
O3706       O  0.49764198  0.51857007  0.22737878    -0.23000
C3707       C  0.49687649  0.49920468  0.22647165    -0.03000
C3708       C  0.49711143  0.49050728  0.24481490    -0.17400
H3709       H  0.49618721  0.49318831  0.28663982     0.20600
H3710       H  0.49913927  0.55411066  0.24620665     0.19000
H3711       H  0.49783642  0.57216417  0.28435993     0.18900
H3712       H  0.49594358  0.47518403  0.24828682     0.14800
C3713       C  0.59830006  0.48008868  0.12204253     0.30200
C3714       C  0.59116351  0.47450685  0.14046299    -0.36100
C3715       C  0.57077698  0.47392930  0.14244423     0.16200
C3716       C  0.55846878  0.47887176  0.12737084     0.22000
C3717       C  0.56554308  0.48398635  0.10897164    -0.34200
C3718       C  0.58576354  0.48426292  0.10693538     0.16100
O3719       O  0.61674413  0.48215571  0.11692466    -0.26300
C3720       C  0.61584611  0.48739268  0.09824928     0.05900
C3721       C  0.59695663  0.48882966  0.09129295    -0.31100
O3722       O  0.54007489  0.47862893  0.13250767    -0.23000
C3723       C  0.54035381  0.47313852  0.15103863    -0.03000
C3724       C  0.55905341  0.46975958  0.15807208    -0.17400
H3725       H  0.60080298  0.47110348  0.15244200     0.20600
H3726       H  0.55589908  0.48778116  0.09710238     0.19000
H3727       H  0.59218295  0.49304458  0.07688115     0.18900
H3728       H  0.56336355  0.46566550  0.17265244     0.14800
C3729       C  0.43627170  0.33576880  0.91090947     0.30200
C3730       C  0.42462059  0.32562411  0.89756955    -0.36100
C3731       C  0.42855101  0.32913573  0.87783057     0.16200
C3732       C  0.44276937  0.34191695  0.87161154     0.22000
C3733       C  0.45457574  0.35183569  0.88493235    -0.34200
C3734       C  0.45079928  0.34816393  0.90464018     0.16100
O3735       O  0.43469668  0.33532229  0.93006256    -0.26300
C3736       C  0.44854851  0.34744507  0.93607192     0.05900
C3737       C  0.45905959  0.35575339  0.92088865    -0.31100
O3738       O  0.44336601  0.34364563  0.85249874    -0.23000
C3739       C  0.42952886  0.33159837  0.84639960    -0.03000
C3740       C  0.41988029  0.32213229  0.86150153    -0.17400
H3741       H  0.41314534  0.31590343  0.90223383     0.20600
H3742       H  0.46573496  0.36191465  0.88027148     0.19000
H3743       H  0.47066750  0.36636482  0.92171434     0.18900
H3744       H  0.40786655  0.31198727  0.86056349     0.14800
C3745       C  0.50995305  0.29261496  0.00328911     0.30200
C3746       C  0.52818268  0.28332976  0.00358732    -0.36100
C3747       C  0.52789890  0.26285697  0.00343569     0.16200
C3748       C  0.51088149  0.25220878  0.00278872     0.22000
C3749       C  0.49266973  0.26147988  0.00284692    -0.34200
C3750       C  0.49295089  0.28192635  0.00321881     0.16100
O3751       O  0.50676157  0.31159871  0.00238246    -0.26300
C3752       C  0.48742811  0.31307764  0.00202662     0.05900
C3753       C  0.47813877  0.29506613  0.00259556    -0.31100
O3754       O  0.51402871  0.23327576  0.00130877    -0.23000
C3755       C  0.53334353  0.23172405  0.00127755    -0.03000
C3756       C  0.54269616  0.24966877  0.00269733    -0.17400
H3757       H  0.54165052  0.29148422  0.00349497     0.20600
H3758       H  0.47921357  0.25333458  0.00218999     0.19000
H3759       H  0.46269398  0.29208288  0.00187013     0.18900
H3760       H  0.55816297  0.25260930  0.00228398     0.14800
C3761       C  0.46674655  0.41467849  0.10674563     0.30200
C3762       C  0.45901217  0.39763789  0.09831485    -0.36100
C3763       C  0.46205828  0.39534097  0.07816708     0.16200
C3764       C  0.47237029  0.40872576  0.06730017     0.22000
C3765       C  0.47975837  0.42582506  0.07560870    -0.34200
C3766       C  0.47633957  0.42831425  0.09553997     0.16100
O3767       O  0.46601434  0.41972727  0.12532397    -0.26300
C3768       C  0.47485729  0.43701053  0.12581340     0.05900
C3769       C  0.48145170  0.44308569  0.10769559    -0.31100
O3770       O  0.47388327  0.40370588  0.04888884    -0.23000
C3771       C  0.46419702  0.38699128  0.04766991    -0.03000
C3772       C  0.45636072  0.38106442  0.06543418    -0.17400
H3773       H  0.45117596  0.38695928  0.10684110     0.20600
H3774       H  0.48758897  0.43650502  0.06707590     0.19000
H3775       H  0.48942645  0.45620337  0.10414992     0.18900
H3776       H  0.44781527  0.36818984  0.06848975     0.14800
C3777       C  0.31847848  0.62592636  0.94426744     0.30200
C3778       C  0.30674635  0.63968473  0.93483714    -0.36100
C3779       C  0.31131988  0.65926432  0.93836987     0.16200
C3780       C  0.32647993  0.66499376  0.95023413     0.22000
C3781       C  0.33798325  0.65124228  0.95995822    -0.34200
C3782       C  0.33330300  0.63166390  0.95654950     0.16100
O3783       O  0.31744804  0.60683017  0.94230221    -0.26300
C3784       C  0.33163957  0.60029565  0.95369987     0.05900
C3785       C  0.34188483  0.61508091  0.96299295    -0.31100
O3786       O  0.32890096  0.68405820  0.95045936    -0.23000
C3787       C  0.31495557  0.69059582  0.93874820    -0.03000
C3788       C  0.30354296  0.67582594  0.93090929    -0.17400
H3789       H  0.29514884  0.63543100  0.92507439     0.20600
H3790       H  0.35001185  0.65549000  0.96919195     0.19000
H3791       H  0.35430955  0.61377761  0.97258178     0.18900
H3792       H  0.29172432  0.67708926  0.92058111     0.14800
C3793       C  0.40107538  0.43088178  0.97309555     0.30200
C3794       C  0.38291983  0.43809165  0.96682567    -0.36100
C3795       C  0.38106991  0.45849043  0.96608021     0.16200
C3796       C  0.39598507  0.47075331  0.97158077     0.22000
C3797       C  0.41413674  0.46359351  0.97748643    -0.34200
C3798       C  0.41609173  0.44333220  0.97783463     0.16100
O3799       O  0.40601834  0.41240582  0.97519034    -0.26300
C3800       C  0.42452409  0.41313096  0.98098361     0.05900
C3801       C  0.43155730  0.43199346  0.98278649    -0.31100
O3802       O  0.39098980  0.48919461  0.97089051    -0.23000
C3803       C  0.37273311  0.48899952  0.96451420    -0.03000
C3804       C  0.36573154  0.47027366  0.96106987    -0.17400
H3805       H  0.37107046  0.42849064  0.96292346     0.20600
H3806       H  0.42589628  0.47319447  0.98166216     0.19000
H3807       H  0.44585970  0.43664475  0.98745102     0.18900
H3808       H  0.35133104  0.46598753  0.95637635     0.14800
C3809       C  0.61272258  0.59120054  0.82367148     0.30200
C3810       C  0.62539580  0.60219345  0.81204534    -0.36100
C3811       C  0.64528236  0.59839492  0.81445010     0.16200
C3812       C  0.65228051  0.58483014  0.82751135     0.22000
C3813       C  0.63958054  0.57353966  0.83885306    -0.34200
C3814       C  0.61966347  0.57724822  0.83635038     0.16100
O3815       O  0.59365392  0.59313095  0.82456956    -0.26300
C3816       C  0.58827411  0.58008810  0.83782927     0.05900
C3817       C  0.60382784  0.56969792  0.84557224    -0.31100
O3818       O  0.67145993  0.58468540  0.82837282    -0.23000
C3819       C  0.67676691  0.59817915  0.81553280    -0.03000
C3820       C  0.66110419  0.60706893  0.80633200    -0.17400
H3821       H  0.62014281  0.61329743  0.80218431     0.20600
H3822       H  0.64486944  0.56297793  0.84927446     0.19000
H3823       H  0.60354715  0.55871575  0.85686961     0.18900
H3824       H  0.66135501  0.61881507  0.79582832     0.14800
C3825       C  0.51765254  0.52371383  0.78447675     0.30200
C3826       C  0.51663855  0.50559479  0.77506140    -0.36100
C3827       C  0.51663007  0.50602558  0.75461738     0.16200
C3828       C  0.51778264  0.52308247  0.74407510     0.22000
C3829       C  0.51848756  0.54124115  0.75349393    -0.34200
C3830       C  0.51827014  0.54081816  0.77396217     0.16100
O3831       O  0.51882176  0.52663949  0.80346418    -0.26300
C3832       C  0.51991331  0.54591517  0.80519450     0.05900
C3833       C  0.51954808  0.55546333  0.78729641    -0.31100
O3834       O  0.51880457  0.51997005  0.72509356    -0.23000
C3835       C  0.51805156  0.50065333  0.72345385    -0.03000
C3836       C  0.51658107  0.49127845  0.74136573    -0.17400
H3837       H  0.51628952  0.49206262  0.78311592     0.20600
H3838       H  0.51953677  0.55474120  0.74543912     0.19000
H3839       H  0.52088367  0.57091306  0.78450464     0.18900
H3840       H  0.51632636  0.47578912  0.74422873     0.14800
C3841       C  0.45758338  0.56422779  0.90339105     0.30200
C3842       C  0.44930772  0.55845392  0.92110766    -0.36100
C3843       C  0.42900897  0.55935876  0.92227217     0.16200
C3844       C  0.41747730  0.56526573  0.90694776     0.22000
C3845       C  0.42583762  0.57164981  0.88930048    -0.34200
C3846       C  0.44631121  0.57099427  0.88821746     0.16100
O3847       O  0.47620272  0.56347908  0.89900615    -0.26300
C3848       C  0.47713849  0.57016223  0.88087939     0.05900
C3849       C  0.45899865  0.57532129  0.87340409    -0.31100
O3850       O  0.39870008  0.56359713  0.91095410    -0.23000
C3851       C  0.39835939  0.55689383  0.92919160    -0.03000
C3852       C  0.41679078  0.55415399  0.93695244    -0.17400
H3853       H  0.45811261  0.55318129  0.93306420     0.20600
H3854       H  0.41700208  0.57638341  0.87714439     0.19000
H3855       H  0.45562303  0.58074997  0.85900719     0.18900
H3856       H  0.42060435  0.54843485  0.95113000     0.14800
C3857       C  0.55245087  0.62716131  0.92560672     0.30200
C3858       C  0.55656909  0.64559963  0.93352648    -0.36100
C3859       C  0.55628123  0.64688915  0.95394277     0.16200
C3860       C  0.55193331  0.63114005  0.96563472     0.22000
C3861       C  0.54840434  0.61263721  0.95776612    -0.34200
C3862       C  0.54895504  0.61130354  0.93743108     0.16100
O3863       O  0.55058315  0.62290966  0.90695819    -0.26300
C3864       C  0.54616965  0.60402263  0.90687127     0.05900
C3865       C  0.54516373  0.59599771  0.92541769    -0.31100
O3866       O  0.55110386  0.63577657  0.98419728    -0.23000
C3867       C  0.55532224  0.65466641  0.98455839    -0.03000
C3868       C  0.55889567  0.66239823  0.96617385    -0.17400
H3869       H  0.55929976  0.65814661  0.92440961     0.20600
H3870       H  0.54496846  0.60024646  0.96686212     0.19000
H3871       H  0.54118913  0.58129822  0.92945841     0.18900
H3872       H  0.56225162  0.67731003  0.96237238     0.14800
C3873       C  0.07853682  0.70675095  0.40500062     0.30200
C3874       C  0.09026891  0.71653649  0.39139233    -0.36100
C3875       C  0.08583164  0.71321673  0.37170848     0.16200
C3876       C  0.07109520  0.70088860  0.36583094     0.22000
C3877       C  0.05926139  0.69131721  0.37939398    -0.34200
C3878       C  0.06351095  0.69484698  0.39900724     0.16100
O3879       O  0.08037937  0.70716851  0.42415217    -0.26300
C3880       C  0.06616790  0.69555122  0.43040226     0.05900
C3881       C  0.05521796  0.68757636  0.41538485    -0.31100
O3882       O  0.07004158  0.69917722  0.34675523    -0.23000
C3883       C  0.08409923  0.71078385  0.34027506    -0.03000
C3884       C  0.09435815  0.71997554  0.35512430    -0.17400
H3885       H  0.10212834  0.72589074  0.39581616     0.20600
H3886       H  0.04768842  0.68161088  0.37496706     0.19000
H3887       H  0.04326283  0.67736896  0.41639475     0.18900
H3888       H  0.10668057  0.72970529  0.35386168     0.14800
C3889       C  0.02261157  0.75856180  0.49839138     0.30200
C3890       C  0.02483075  0.77884673  0.49719115    -0.36100
C3891       C  0.00772455  0.78987642  0.49869188     0.16200
C3892       C  0.98965870  0.78153427  0.50137697     0.22000
C3893       C  0.98741309  0.76120353  0.50245680    -0.34200
C3894       C  0.00453082  0.75013957  0.50072888     0.16100
O3895       O  0.03661721  0.74556109  0.49668887    -0.26300
C3896       C  0.02745799  0.72851697  0.49774795     0.05900
C3897       C  0.00742439  0.73045210  0.50019982    -0.31100
O3898       O  0.97556907  0.79459154  0.50176720    -0.23000
C3899       C  0.98471220  0.81151811  0.49922568    -0.03000
C3900       C  0.00474928  0.80944995  0.49720392    -0.17400
H3901       H  0.03889462  0.78554628  0.49486476     0.20600
H3902       H  0.97326566  0.75447737  0.50410308     0.19000
H3903       H  0.99659232  0.71905121  0.50111524     0.18900
H3904       H  0.01546502  0.82066842  0.49446239     0.14800
C3905       C  0.15297713  0.58611619  0.68984912     0.30200
C3906       C  0.14007818  0.57427453  0.67942246    -0.36100
C3907       C  0.12025814  0.57741972  0.68302008     0.16200
C3908       C  0.11352293  0.59138471  0.69581123     0.22000
C3909       C  0.12642269  0.60305537  0.70642881    -0.34200
C3910       C  0.14625130  0.59976555  0.70298303     0.16100
O3911       O  0.17211652  0.58603623  0.68841237    -0.26300
C3912       C  0.17767128  0.59966436  0.70096323     0.05900
C3913       C  0.16222083  0.60862274  0.71048414    -0.31100
O3914       O  0.09436794  0.59236292  0.69625898    -0.23000
C3915       C  0.08883150  0.57867060  0.68376945    -0.03000
C3916       C  0.10429510  0.56888317  0.67515245    -0.17400
H3917       H  0.14512158  0.56352386  0.66908637     0.20600
H3918       H  0.12136799  0.61405915  0.71649156     0.19000
H3919       H  0.16270794  0.62026363  0.72108015     0.18900
H3920       H  0.10381360  0.55753214  0.66424635     0.14800
C3921       C  0.05101706  0.62290231  0.59863755     0.30200
C3922       C  0.05787483  0.64056069  0.59082149    -0.36100
C3923       C  0.05441356  0.64352022  0.57087984     0.16200
C3924       C  0.04454419  0.63014187  0.55962416     0.22000
C3925       C  0.03807669  0.61237384  0.56731366    -0.34200
C3926       C  0.04189644  0.60925215  0.58707612     0.16100
O3927       O  0.05189604  0.61743002  0.61703505    -0.26300
C3928       C  0.04365466  0.59987931  0.61709313     0.05900
C3929       C  0.03730312  0.59397401  0.59884622    -0.31100
O3930       O  0.04250372  0.63589709  0.54148996    -0.23000
C3931       C  0.05141327  0.65307529  0.54088660    -0.03000
C3932       C  0.05924635  0.65858228  0.55874378    -0.17400
H3933       H  0.06526587  0.65126934  0.59968418     0.20600
H3934       H  0.03053483  0.60173598  0.55848611     0.19000
H3935       H  0.02957632  0.58078345  0.59503851     0.18900
H3936       H  0.06729055  0.67166523  0.56222541     0.14800
C3937       C  0.19782049  0.41653523  0.43848863     0.30200
C3938       C  0.20947113  0.40298921  0.42851904    -0.36100
C3939       C  0.20656546  0.38335393  0.43347545     0.16200
C3940       C  0.19304019  0.37751834  0.44715835     0.22000
C3941       C  0.18167664  0.39102076  0.45730592    -0.34200
C3942       C  0.18466082  0.41056458  0.45245567     0.16100
O3943       O  0.19739719  0.43556247  0.43567299    -0.26300
C3944       C  0.18390606  0.44173653  0.44815515     0.05900
C3945       C  0.17559454  0.42681893  0.45899583    -0.31100
O3946       O  0.19164744  0.35847535  0.44855304    -0.23000
C3947       C  0.20458530  0.35193469  0.43576865    -0.03000
C3948       C  0.21444409  0.36672979  0.42602388    -0.17400
H3949       H  0.21970786  0.40738738  0.41740851     0.20600
H3950       H  0.17091633  0.38656665  0.46788844     0.19000
H3951       H  0.16414838  0.42778276  0.46977195     0.18900
H3952       H  0.22506342  0.36539952  0.41447072     0.14800
C3953       C  0.27616222  0.50864846  0.51001971     0.30200
C3954       C  0.26740262  0.50836450  0.49154394    -0.36100
C3955       C  0.24694927  0.50886816  0.49126553     0.16200
C3956       C  0.23581911  0.50927251  0.50798852     0.22000
C3957       C  0.24457553  0.50975616  0.52644279    -0.34200
C3958       C  0.26501846  0.50957452  0.52671087     0.16100
O3959       O  0.29503142  0.50775693  0.51375732    -0.26300
C3960       C  0.29597997  0.50841228  0.53311420     0.05900
C3961       C  0.27773887  0.50959603  0.54188550    -0.31100
O3962       O  0.21693404  0.50869751  0.50434514    -0.23000
C3963       C  0.21593219  0.50823514  0.48499662    -0.03000
C3964       C  0.23417106  0.50837361  0.47612473    -0.17400
H3965       H  0.27591849  0.50761476  0.47831909     0.20600
H3966       H  0.23605139  0.51005271  0.53967958     0.19000
H3967       H  0.27433929  0.50982232  0.55726334     0.18900
H3968       H  0.23751281  0.50748112  0.46075755     0.14800
C3969       C  0.11757655  0.57139995  0.46193341     0.30200
C3970       C  0.09883540  0.57905521  0.46444038    -0.36100
C3971       C  0.09768604  0.59921372  0.46715457     0.16200
C3972       C  0.11388345  0.61107216  0.46760985     0.22000
C3973       C  0.13267894  0.60343590  0.46466859    -0.34200
C3974       C  0.13382743  0.58320611  0.46169705     0.16100
O3975       O  0.12193951  0.55283657  0.46024825    -0.26300
C3976       C  0.14120698  0.55262384  0.45850167     0.05900
C3977       C  0.14947927  0.57111058  0.45916257    -0.31100
O3978       O  0.10940764  0.62937631  0.47147721    -0.23000
C3979       C  0.09008667  0.62919637  0.47327935    -0.03000
C3980       C  0.08203092  0.61084181  0.47060300    -0.17400
H3981       H  0.08605742  0.56985504  0.46467066     0.20600
H3982       H  0.14550750  0.61255581  0.46503848     0.19000
H3983       H  0.16474261  0.57494827  0.45874159     0.18900
H3984       H  0.06689793  0.60660517  0.47163766     0.14800
C3985       C  0.90105620  0.45049896  0.32179212     0.30200
C3986       C  0.88675834  0.43968582  0.31198921    -0.36100
C3987       C  0.86738136  0.44480871  0.31602040     0.16200
C3988       C  0.86244023  0.45939537  0.32893873     0.22000
C3989       C  0.87668121  0.47037652  0.33844435    -0.34200
C3990       C  0.89597125  0.46538369  0.33429556     0.16100
O3991       O  0.92007186  0.44769365  0.32104644    -0.26300
C3992       C  0.92711351  0.46111063  0.33311447     0.05900
C3993       C  0.91278049  0.47255270  0.34163168    -0.31100
O3994       O  0.84351800  0.46095921  0.33149976    -0.23000
C3995       C  0.83618619  0.44737459  0.31988466    -0.03000
C3996       C  0.85031268  0.43693716  0.30978479    -0.17400
H3997       H  0.89044931  0.42787578  0.30225760     0.20600
H3998       H  0.87298080  0.48173300  0.34869898     0.19000
H3999       H  0.91448882  0.48405909  0.35224851     0.18900
H4000       H  0.84829566  0.42481691  0.29993520     0.14800
C4001       C  0.09802420  0.47830793  0.39904659     0.30200
C4002       C  0.08998280  0.47076609  0.38174155    -0.36100
C4003       C  0.06968079  0.47264379  0.37969705     0.16200
C4004       C  0.05835643  0.48172958  0.39357812     0.22000
C4005       C  0.06628413  0.48891844  0.41089405    -0.34200
C4006       C  0.08635677  0.48664317  0.41311129     0.16100
O4007       O  0.11660482  0.47841110  0.40404269    -0.26300
C4008       C  0.11660403  0.48651034  0.42168072     0.05900
C4009       C  0.09820135  0.49182550  0.42805377    -0.31100
O4010       O  0.03992478  0.48253862  0.38868850    -0.23000
C4011       C  0.03912248  0.47360821  0.37156218    -0.03000
C4012       C  0.05719482  0.46693838  0.36519656    -0.17400
H4013       H  0.09889269  0.46393365  0.37070721     0.20600
H4014       H  0.05737593  0.49579179  0.42190738     0.19000
H4015       H  0.09423302  0.49892952  0.44154041     0.18900
H4016       H  0.06063074  0.45935571  0.35183175     0.14800
C4017       C  0.92747437  0.32841731  0.64950577     0.30200
C4018       C  0.92232289  0.32324938  0.63038904    -0.36100
C4019       C  0.93144806  0.33383598  0.61547100     0.16200
C4020       C  0.94496289  0.34821423  0.61920849     0.22000
C4021       C  0.95007398  0.35338568  0.63826712    -0.34200
C4022       C  0.94073281  0.34305418  0.65314319     0.16100
O4023       O  0.92007720  0.32110859  0.66563674    -0.26300
C4024       C  0.92859632  0.33129752  0.67975445     0.05900
C4025       C  0.94160746  0.34515781  0.67284077    -0.31100
O4026       O  0.95165857  0.35634177  0.60322711    -0.23000
C4027       C  0.94221800  0.34726803  0.58898760    -0.03000
C4028       C  0.92934848  0.33312247  0.59569315    -0.17400
H4029       H  0.91165439  0.31206313  0.62738503     0.20600
H4030       H  0.96035381  0.36492982  0.64127734     0.19000
H4031       H  0.95007848  0.35555305  0.68109362     0.18900
H4032       H  0.91994227  0.32371865  0.58726780     0.14800
C4033       C  0.00444028  0.29237796  0.52287509     0.30200
C4034       C  0.02267994  0.28324951  0.52344936    -0.36100
C4035       C  0.02255195  0.26287184  0.52219142     0.16200
C4036       C  0.00564589  0.25211894  0.52074837     0.22000
C4037       C  0.98739874  0.26128158  0.51982525    -0.34200
C4038       C  0.98754032  0.28170333  0.52088316     0.16100
O4039       O  0.00113942  0.31121664  0.52466703    -0.26300
C4040       C  0.98187464  0.31269050  0.52356048     0.05900
C4041       C  0.97265521  0.29479045  0.52117304    -0.31100
O4042       O  0.00887387  0.23316470  0.52146018    -0.23000
C4043       C  0.02812934  0.23180186  0.52309018    -0.03000
C4044       C  0.03736781  0.24982601  0.52344032    -0.17400
H4045       H  0.03601342  0.29143262  0.52521609     0.20600
H4046       H  0.97400844  0.25305703  0.51886956     0.19000
H4047       H  0.95720795  0.29182336  0.52039294     0.18900
H4048       H  0.05268341  0.25286249  0.52549918     0.14800
C4049       C  0.96221396  0.39462841  0.44864636     0.30200
C4050       C  0.96113873  0.39413775  0.42817539    -0.36100
C4051       C  0.96642247  0.41139909  0.41841203     0.16200
C4052       C  0.97193906  0.42808209  0.42814793     0.22000
C4053       C  0.97329702  0.42847199  0.44848860    -0.34200
C4054       C  0.96846550  0.41117049  0.45816389     0.16100
O4055       O  0.95790287  0.38029749  0.46085565    -0.26300
C4056       C  0.96191487  0.38775923  0.47831614     0.05900
C4057       C  0.96857278  0.40684012  0.47743384    -0.31100
O4058       O  0.97595496  0.44265576  0.41629274    -0.23000
C4059       C  0.97330596  0.43521686  0.39863025    -0.03000
C4060       C  0.96747056  0.41577610  0.39902990    -0.17400
H4061       H  0.95661166  0.38121136  0.42040782     0.20600
H4062       H  0.97793824  0.44136313  0.45625082     0.19000
H4063       H  0.97252156  0.41630258  0.48939098     0.18900
H4064       H  0.96437853  0.40632219  0.38682170     0.14800
C4065       C  0.82394822  0.62738291  0.58230354     0.30200
C4066       C  0.81340526  0.64124186  0.59277549    -0.36100
C4067       C  0.81759852  0.66066430  0.58843407     0.16200
C4068       C  0.83138412  0.66627302  0.57491511     0.22000
C4069       C  0.84183727  0.65234213  0.56423545    -0.34200
C4070       C  0.83745724  0.63281231  0.56842262     0.16100
O4071       O  0.82268462  0.60839240  0.58445150    -0.26300
C4072       C  0.83537994  0.60152581  0.57161814     0.05900
C4073       C  0.84495810  0.61600579  0.56116629    -0.31100
O4074       O  0.83328558  0.68539921  0.57383814    -0.23000
C4075       C  0.82033664  0.69192001  0.58669398    -0.03000
C4076       C  0.81020042  0.67717380  0.59610447    -0.17400
H4077       H  0.80278989  0.63717220  0.60367979     0.20600
H4078       H  0.85269735  0.65640925  0.55357436     0.19000
H4079       H  0.85618432  0.61436074  0.55023346     0.18900
H4080       H  0.79924265  0.67845960  0.60735724     0.14800
C4081       C  0.77515988  0.53528591  0.51699696     0.30200
C4082       C  0.76586157  0.53595166  0.49884956    -0.36100
C4083       C  0.74546762  0.53546443  0.49919698     0.16200
C4084       C  0.73484061  0.53469790  0.51622680     0.22000
C4085       C  0.74417133  0.53384801  0.53443224    -0.34200
C4086       C  0.76464445  0.53406739  0.53407464     0.16100
O4087       O  0.79409281  0.53618238  0.51999091    -0.26300
C4088       C  0.79585989  0.53529262  0.53924787     0.05900
C4089       C  0.77799741  0.53393200  0.54879272    -0.31100
O4090       O  0.71586446  0.53552902  0.51309165    -0.23000
C4091       C  0.71437469  0.53655687  0.49377811    -0.03000
C4092       C  0.73234261  0.53648031  0.48442848    -0.17400
H4093       H  0.77396816  0.53703793  0.48539341     0.20600
H4094       H  0.73605620  0.53334540  0.54791745     0.19000
H4095       H  0.77525183  0.53355725  0.56429854     0.18900
H4096       H  0.73530559  0.53784900  0.46901736     0.14800
C4097       C  0.91064200  0.43859968  0.55741050     0.30200
C4098       C  0.90617411  0.45335657  0.57087086    -0.36100
C4099       C  0.89050057  0.46553289  0.56592052     0.16200
C4100       C  0.88042950  0.46366829  0.54864488     0.22000
C4101       C  0.88480829  0.44891760  0.53531643    -0.34200
C4102       C  0.90001905  0.43645681  0.54050430     0.16100
O4103       O  0.92425459  0.42514890  0.55921653    -0.26300
C4104       C  0.92197348  0.41417517  0.54340733     0.05900
C4105       C  0.90714019  0.42051453  0.53129302    -0.31100
O4106       O  0.86737150  0.47744088  0.54617037    -0.23000
C4107       C  0.86856462  0.48797213  0.56232236    -0.03000
C4108       C  0.88271182  0.48128390  0.57518523    -0.17400
H4109       H  0.91424237  0.45514042  0.58426759     0.20600
H4110       H  0.87688107  0.44726515  0.52182462     0.19000
H4111       H  0.90221158  0.41413473  0.51776759     0.18900
H4112       H  0.88759818  0.48799389  0.58857009     0.14800
C4113       C  0.91970774  0.56220446  0.61608611     0.30200
C4114       C  0.92833901  0.56937723  0.63314728    -0.36100
C4115       C  0.94826981  0.56561127  0.63528973     0.16200
C4116       C  0.95883906  0.55526411  0.62168999     0.22000
C4117       C  0.95034174  0.54853956  0.60442401    -0.34200
C4118       C  0.93051431  0.55255830  0.60215471     0.16100
O4119       O  0.90111034  0.56314734  0.61155027    -0.26300
C4120       C  0.90013938  0.55437118  0.59432623     0.05900
C4121       C  0.91797996  0.54762533  0.58766766    -0.31100
O4122       O  0.97709263  0.55288502  0.62686437    -0.23000
C4123       C  0.97834038  0.56202112  0.64387386    -0.03000
C4124       C  0.96091173  0.57038464  0.64981843    -0.17400
H4125       H  0.92005321  0.57709857  0.64408025     0.20600
H4126       H  0.95856697  0.54056179  0.59362620     0.19000
H4127       H  0.92104417  0.53947190  0.57454692     0.18900
H4128       H  0.95802252  0.57869522  0.66287523     0.14800
C4129       C  0.93565472  0.70966415  0.90351483     0.30200
C4130       C  0.92499996  0.72007151  0.88954048    -0.36100
C4131       C  0.92975433  0.71623497  0.87003629     0.16200
C4132       C  0.94389118  0.70299211  0.86468086     0.22000
C4133       C  0.95477274  0.69291382  0.87861755    -0.34200
C4134       C  0.95010767  0.69682233  0.89805018     0.16100
O4135       O  0.93296231  0.71004054  0.92254477    -0.26300
C4136       C  0.94601811  0.69740531  0.92923574     0.05900
C4137       C  0.95712966  0.68885903  0.91466206    -0.31100
O4138       O  0.94504907  0.70064296  0.84569704    -0.23000
C4139       C  0.93163503  0.71269254  0.83875404    -0.03000
C4140       C  0.92174398  0.72289527  0.85319498    -0.17400
H4141       H  0.91350415  0.73003130  0.89355527     0.20600
H4142       H  0.96573195  0.68237534  0.87459275     0.19000
H4143       H  0.96825737  0.67781779  0.91607821     0.18900
H4144       H  0.90986442  0.73308642  0.85152894     0.14800
C4145       C  0.98784501  0.76064845  0.99758817     0.30200
C4146       C  0.98603895  0.78102239  0.99736873    -0.36100
C4147       C  0.00349581  0.79162830  0.99798050     0.16200
C4148       C  0.02149365  0.78278906  0.99889134     0.22000
C4149       C  0.02330932  0.76240626  0.99890871    -0.34200
C4150       C  0.00585256  0.75179706  0.99816355     0.16100
O4151       O  0.97345598  0.74796615  0.99660464    -0.26300
C4152       C  0.98232116  0.73073170  0.99641480     0.05900
C4153       C  0.00250548  0.73222272  0.99731290    -0.31100
O4154       O  0.03590526  0.79549545  0.99912889    -0.23000
C4155       C  0.02706309  0.81273101  0.99828758    -0.03000
C4156       C  0.00687952  0.81120266  0.99744625    -0.17400
H4157       H  0.97200709  0.78810501  0.99654341     0.20600
H4158       H  0.03736033  0.75532127  0.99924563     0.19000
H4159       H  0.01313299  0.72061042  0.99699183     0.18900
H4160       H  0.99629522  0.82280074  0.99629520     0.14800
C4161       C  0.89865521  0.59050692  0.20008318     0.30200
C4162       C  0.88564497  0.59992519  0.21267773    -0.36100
C4163       C  0.86581424  0.59730574  0.20859595     0.16200
C4164       C  0.85918345  0.58626929  0.19316786     0.22000
C4165       C  0.87217525  0.57651723  0.18085706    -0.34200
C4166       C  0.89197793  0.57905549  0.18498457     0.16100
O4167       O  0.91782773  0.59183302  0.20040651    -0.26300
C4168       C  0.92341334  0.58084850  0.18547042     0.05900
C4169       C  0.90796733  0.57248445  0.17545605    -0.31100
O4170       O  0.84009989  0.58702688  0.19117028    -0.23000
C4171       C  0.83444806  0.59860492  0.20559508    -0.03000
C4172       C  0.84980530  0.60527709  0.21698929    -0.17400
H4173       H  0.89062044  0.60911283  0.22445909     0.20600
H4174       H  0.86721821  0.56800690  0.16857488     0.19000
H4175       H  0.90846572  0.56344610  0.16256530     0.18900
H4176       H  0.84929591  0.61527113  0.22915822     0.14800
C4177       C  0.99394662  0.53657289  0.24554423     0.30200
C4178       C  0.99530674  0.53855013  0.26585585    -0.36100
C4179       C  0.99463915  0.52122070  0.27666713     0.16200
C4180       C  0.99302547  0.50315878  0.26805177     0.22000
C4181       C  0.99156758  0.50118732  0.24772838    -0.34200
C4182       C  0.99199350  0.51854523  0.23692593     0.16100
O4183       O  0.99339743  0.55091041  0.23278996    -0.26300
C4184       C  0.99096142  0.54202575  0.21573927     0.05900
C4185       C  0.98995488  0.52185116  0.21741888    -0.31100
O4186       O  0.99217830  0.48893440  0.28094518    -0.23000
C4187       C  0.99309640  0.49797346  0.29807945    -0.03000
C4188       C  0.99458447  0.51810411  0.29630204    -0.17400
H4189       H  0.99636449  0.55265463  0.27276717     0.20600
H4190       H  0.98980353  0.48713425  0.24085796     0.19000
H4191       H  0.98754759  0.51125390  0.20602605     0.18900
H4192       H  0.99513649  0.52885962  0.30778815     0.14800
C4193       C  0.95567606  0.64956357  0.06995709     0.30200
C4194       C  0.95663342  0.65011892  0.09040584    -0.36100
C4195       C  0.96014085  0.63219992  0.09970912     0.16200
C4196       C  0.96215679  0.61494937  0.08959407     0.22000
C4197       C  0.96133570  0.61441818  0.06928256    -0.34200
C4198       C  0.95823674  0.63227173  0.06004018     0.16100
O4199       O  0.95328068  0.66455746  0.05806864    -0.26300
C4200       C  0.95465319  0.65658349  0.04045527     0.05900
C4201       C  0.95776093  0.63664563  0.04085834    -0.31100
O4202       O  0.96564237  0.59997128  0.10100999    -0.23000
C4203       C  0.96613351  0.60765480  0.11872637    -0.03000
C4204       C  0.96284757  0.62767315  0.11886033    -0.17400
H4205       H  0.95518039  0.66356863  0.09844263     0.20600
H4206       H  0.96341055  0.60106788  0.06121686     0.19000
H4207       H  0.95961533  0.62683880  0.02867212     0.18900
H4208       H  0.96270301  0.63743196  0.13121540     0.14800
C4209       C  0.19195158  0.62921523  0.07785136     0.30200
C4210       C  0.20376128  0.64221634  0.08819234    -0.36100
C4211       C  0.19975445  0.66203833  0.08550456     0.16200
C4212       C  0.18505341  0.66875523  0.07359111     0.22000
C4213       C  0.17346187  0.65573046  0.06292340    -0.34200
C4214       C  0.17757470  0.63585423  0.06549737     0.16100
O4215       O  0.19250494  0.61004349  0.07898477    -0.26300
C4216       C  0.17846984  0.60429558  0.06698142     0.05900
C4217       C  0.16878123  0.61971633  0.05810198    -0.31100
O4218       O  0.18326109  0.68792772  0.07416488    -0.23000
C4219       C  0.19715794  0.69347419  0.08647242    -0.03000
C4220       C  0.20787681  0.67797137  0.09384839    -0.17400
H4221       H  0.21502536  0.63721902  0.09799662     0.20600
H4222       H  0.16180101  0.66070790  0.05358793     0.19000
H4223       H  0.15654817  0.61909783  0.04820895     0.18900
H4224       H  0.21961147  0.67836858  0.10434232     0.14800
C4225       C  0.27487756  0.53310203  0.00966766     0.30200
C4226       C  0.26497850  0.53456231  0.02750367    -0.36100
C4227       C  0.24455126  0.53438841  0.02658469     0.16200
C4228       C  0.23442080  0.53311313  0.00930510     0.22000
C4229       C  0.24433466  0.53130720  0.99146039    -0.34200
C4230       C  0.26480843  0.53127859  0.99239853     0.16100
O4231       O  0.29393590  0.53412807  0.00706935    -0.26300
C4232       C  0.29619789  0.53269691  0.98786417     0.05900
C4233       C  0.27854140  0.53079204  0.97804446    -0.31100
O4234       O  0.21533923  0.53445620  0.01182944    -0.23000
C4235       C  0.21324975  0.53632859  0.03103858    -0.03000
C4236       C  0.23095436  0.53627429  0.04088057    -0.17400
H4237       H  0.27267616  0.53617782  0.04115313     0.20600
H4238       H  0.23663491  0.53043920  0.97774284     0.19000
H4239       H  0.27613779  0.53011960  0.96248871     0.18900
H4240       H  0.23346003  0.53811278  0.05632603     0.14800
C4241       C  0.09255994  0.56537888  0.11374219     0.30200
C4242       C  0.08458013  0.57046060  0.13193102    -0.36100
C4243       C  0.06419381  0.56943542  0.13344712     0.16200
C4244       C  0.05261362  0.56340398  0.11819825     0.22000
C4245       C  0.06052532  0.55872942  0.09997383    -0.34200
C4246       C  0.08078750  0.56014518  0.09835181     0.16100
O4247       O  0.11123470  0.56462277  0.10920223    -0.26300
C4248       C  0.11133466  0.55922299  0.09056519     0.05900
C4249       C  0.09279734  0.55636755  0.08303886    -0.31100
O4250       O  0.03406049  0.56272263  0.12288407    -0.23000
C4251       C  0.03355958  0.56872741  0.14127615    -0.03000
C4252       C  0.05187123  0.57327562  0.14864639    -0.17400
H4253       H  0.09363581  0.57476082  0.14407699     0.20600
H4254       H  0.05148574  0.55416263  0.08790625     0.19000
H4255       H  0.08881664  0.55146372  0.06860662     0.18900
H4256       H  0.05555553  0.57828628  0.16311332     0.14800
C4257       C  0.83143952  0.41163396  0.95065308     0.30200
C4258       C  0.83639236  0.39258532  0.95597177    -0.36100
C4259       C  0.82644213  0.37777439  0.94619199     0.16200
C4260       C  0.81240725  0.38150893  0.93232610     0.22000
C4261       C  0.80753550  0.40057446  0.92691466    -0.34200
C4262       C  0.81767621  0.41539551  0.93652350     0.16100
O4263       O  0.83916816  0.42760408  0.95774416    -0.26300
C4264       C  0.83039382  0.44178365  0.94795657     0.05900
C4265       C  0.81689774  0.43511277  0.93447087    -0.31100
O4266       O  0.80508750  0.36548584  0.92488388    -0.23000
C4267       C  0.81466639  0.35133394  0.93395442    -0.03000
C4268       C  0.82817756  0.35806877  0.94737504    -0.17400
H4269       H  0.84740154  0.38954268  0.96680840     0.20600
H4270       H  0.79677810  0.40361263  0.91582703     0.19000
H4271       H  0.80792004  0.44352469  0.92464319     0.18900
H4272       H  0.83792750  0.34969680  0.95647445     0.14800
C4273       C  0.76561407  0.50829368  0.99249894     0.30200
C4274       C  0.74523209  0.50854391  0.99042548    -0.36100
C4275       C  0.73438430  0.50828793  0.00779473     0.16200
C4276       C  0.74307463  0.50803379  0.02588943     0.22000
C4277       C  0.76336798  0.50761689  0.02794225    -0.34200
C4278       C  0.77416564  0.50766865  0.01064502     0.16100
O4279       O  0.77858791  0.50788883  0.97829917    -0.26300
C4280       C  0.79563118  0.50686335  0.98750789     0.05900
C4281       C  0.79373059  0.50662238  0.00764588    -0.31100
O4282       O  0.73033108  0.50756938  0.04020135    -0.23000
C4283       C  0.71315946  0.50739160  0.03129117    -0.03000
C4284       C  0.71474492  0.50773435  0.01106882    -0.17400
H4285       H  0.73832273  0.50863427  0.97626474     0.20600
H4286       H  0.77026771  0.50700305  0.04209306     0.19000
H4287       H  0.80510388  0.50548956  0.01847816     0.18900
H4288       H  0.70316865  0.50733368  0.00039977     0.14800
C4289       C  0.87830979  0.58144125  0.96493148     0.30200
C4290       C  0.87901208  0.60151319  0.96096129    -0.36100
C4291       C  0.89571625  0.61139451  0.96748078     0.16200
C4292       C  0.91083736  0.60207480  0.97685787     0.22000
C4293       C  0.90996321  0.58217614  0.98115826    -0.34200
C4294       C  0.89314794  0.57244210  0.97503117     0.16100
O4295       O  0.86441744  0.56912836  0.95975657    -0.26300
C4296       C  0.87036531  0.55218462  0.96705486     0.05900
C4297       C  0.88804832  0.55346787  0.97677330    -0.31100
O4298       O  0.92521561  0.61394259  0.98134881    -0.23000
C4299       C  0.91914179  0.63119930  0.97508491    -0.03000
C4300       C  0.90083374  0.63056378  0.96644739    -0.17400
H4301       H  0.86740526  0.60888957  0.95331930     0.20600
H4302       H  0.92159383  0.57478683  0.98876062     0.19000
H4303       H  0.89630884  0.54187446  0.98351311     0.18900
H4304       H  0.89257027  0.64247720  0.96031368     0.14800
C4305       C  0.08123857  0.33903700  0.11798520     0.30200
C4306       C  0.09290967  0.32908644  0.13140970    -0.36100
C4307       C  0.08900331  0.33275960  0.15110137     0.16200
C4308       C  0.07487228  0.34562616  0.15728916     0.22000
C4309       C  0.06317511  0.35561324  0.14382794    -0.34200
C4310       C  0.06683325  0.35163977  0.12409504     0.16100
O4311       O  0.08231248  0.33767349  0.09885523    -0.26300
C4312       C  0.06823521  0.34937262  0.09261071     0.05900
C4313       C  0.05812266  0.35843702  0.10766509    -0.31100
O4314       O  0.07381670  0.34677668  0.17648525    -0.23000
C4315       C  0.08727786  0.33424235  0.18258374    -0.03000
C4316       C  0.09715217  0.32516941  0.16740907    -0.17400
H4317       H  0.10410595  0.31903204  0.12683618     0.20600
H4318       H  0.05190491  0.36558862  0.14839746     0.19000
H4319       H  0.04632120  0.36879927  0.10661185     0.18900
H4320       H  0.10876160  0.31458038  0.16830176     0.14800
C4321       C  0.99276000  0.25793726  0.02370732     0.30200
C4322       C  0.99038799  0.27821228  0.02266545    -0.36100
C4323       C  0.00745374  0.28935242  0.02388506     0.16200
C4324       C  0.02565823  0.28109208  0.02567697     0.22000
C4325       C  0.02803088  0.26077990  0.02676427    -0.34200
C4326       C  0.01091039  0.24963271  0.02583032     0.16100
O4327       O  0.97866284  0.24493132  0.02390654    -0.26300
C4328       C  0.98780328  0.22802127  0.02629009     0.05900
C4329       C  0.00792815  0.23003426  0.02759141    -0.31100
O4330       O  0.03956572  0.29428026  0.02708701    -0.23000
C4331       C  0.03014742  0.31122146  0.02638108    -0.03000
C4332       C  0.01011336  0.30903278  0.02443468    -0.17400
H4333       H  0.97616478  0.28485284  0.02150687     0.20600
H4334       H  0.04218286  0.25416611  0.02869015     0.19000
H4335       H  0.01867957  0.21880448  0.03008175     0.18900
H4336       H  0.99911767  0.32028649  0.02386186     0.14800
C4337       C  0.11672633  0.47266504  0.04643420     0.30200
C4338       C  0.09960431  0.46411998  0.03939552    -0.36100
C4339       C  0.09746039  0.44417591  0.04292327     0.16200
C4340       C  0.11142934  0.43322512  0.05230410     0.22000
C4341       C  0.12845631  0.44188193  0.05969523    -0.34200
C4342       C  0.13041393  0.46201164  0.05654052     0.16100
O4343       O  0.12157498  0.49109399  0.04466401    -0.26300
C4344       C  0.13846404  0.49249210  0.05398641     0.05900
C4345       C  0.14467617  0.47487494  0.06185422    -0.31100
O4346       O  0.10670487  0.41461146  0.05321701    -0.23000
C4347       C  0.08931158  0.41382611  0.04471556    -0.03000
C4348       C  0.08279655  0.43177342  0.03812835    -0.17400
H4349       H  0.08869863  0.47246591  0.03171896     0.20600
H4350       H  0.13937972  0.43352701  0.06733415     0.19000
H4351       H  0.15777096  0.47197829  0.07008465     0.18900
H4352       H  0.06947974  0.43504762  0.03040228     0.14800
C4353       C  0.15047473  0.45936968  0.83132987     0.30200
C4354       C  0.13706747  0.47041936  0.84194494    -0.36100
C4355       C  0.11744748  0.46636547  0.83835887     0.16200
C4356       C  0.11137903  0.45225850  0.82539797     0.22000
C4357       C  0.12480023  0.44135872  0.81458251    -0.34200
C4358       C  0.14444498  0.44557340  0.81801508     0.16100
O4359       O  0.16953536  0.46022576  0.83294927    -0.26300
C4360       C  0.17576922  0.44697985  0.82033948     0.05900
C4361       C  0.16084517  0.43746124  0.81055367    -0.31100
O4362       O  0.09230824  0.45029696  0.82508463    -0.23000
C4363       C  0.08616231  0.46347882  0.83784536    -0.03000
C4364       C  0.10113684  0.47394651  0.84648358    -0.17400
H4365       H  0.14161367  0.48120343  0.85247500     0.20600
H4366       H  0.12026343  0.43019723  0.80444191     0.19000
H4367       H  0.16194266  0.42580788  0.80000715     0.18900
H4368       H  0.10014763  0.48507087  0.85759140     0.14800
C4369       C  0.01857722  0.53594500  0.74890210     0.30200
C4370       C  0.01679904  0.53873770  0.76913597    -0.36100
C4371       C  0.01763554  0.52186464  0.78071276     0.16200
C4372       C  0.01971856  0.50351914  0.77282720     0.22000
C4373       C  0.02151889  0.50074398  0.75264788    -0.34200
C4374       C  0.02099659  0.51759871  0.74112596     0.16100
O4375       O  0.01917094  0.54970576  0.73547605    -0.26300
C4376       C  0.02212039  0.54007432  0.71888129     0.05900
C4377       C  0.02339349  0.52003356  0.72154476    -0.31100
O4378       O  0.02080746  0.48982293  0.78622597    -0.23000
C4379       C  0.01960486  0.49941510  0.80301837    -0.03000
C4380       C  0.01764204  0.51945685  0.80050248    -0.17400
H4381       H  0.01539886  0.55310218  0.77543567     0.20600
H4382       H  0.02369283  0.48645296  0.74640597     0.19000
H4383       H  0.02615527  0.50894437  0.71070771     0.18900
H4384       H  0.01682983  0.53060698  0.81159569     0.14800
C4385       C  0.95544681  0.47849514  0.90020505     0.30200
C4386       C  0.94754177  0.48272422  0.91848331    -0.36100
C4387       C  0.92725331  0.48309510  0.91955462     0.16200
C4388       C  0.91545111  0.47984880  0.90364518     0.22000
C4389       C  0.92340401  0.47512698  0.88534125    -0.34200
C4390       C  0.94383688  0.47444100  0.88432782     0.16100
O4391       O  0.97405930  0.47832350  0.89594973    -0.26300
C4392       C  0.97459310  0.47375664  0.87719080     0.05900
C4393       C  0.95623894  0.47093726  0.86909813    -0.31100
O4394       O  0.89682772  0.48205065  0.90788293    -0.23000
C4395       C  0.89683400  0.48642448  0.92678715    -0.03000
C4396       C  0.91533730  0.48713432  0.93480925    -0.17400
H4397       H  0.95663292  0.48584121  0.93096951     0.20600
H4398       H  0.91432598  0.47247911  0.87274456     0.19000
H4399       H  0.95260029  0.46758798  0.85414437     0.18900
H4400       H  0.91941524  0.49070453  0.94960408     0.14800
C4401       C  0.04673833  0.40950413  0.96208150     0.30200
C4402       C  0.04098204  0.42756258  0.95453764    -0.36100
C4403       C  0.04257689  0.42975356  0.93434648     0.16200
C4404       C  0.04904512  0.41504464  0.92230348     0.22000
C4405       C  0.05531784  0.39707687  0.92995198    -0.34200
C4406       C  0.05403951  0.39498434  0.95028525     0.16100
O4407       O  0.04580462  0.40427328  0.98045566    -0.26300
C4408       C  0.05286922  0.38626028  0.98067128     0.05900
C4409       C  0.05848945  0.37970137  0.96232941    -0.31100
O4410       O  0.04816761  0.41993775  0.90371643    -0.23000
C4411       C  0.04143362  0.43813680  0.90396506    -0.03000
C4412       C  0.03784619  0.44502487  0.92263622    -0.17400
H4413       H  0.03539022  0.43903341  0.96377476     0.20600
H4414       H  0.06056062  0.38547363  0.92068723     0.19000
H4415       H  0.06448793  0.36567506  0.95842502     0.18900
H4416       H  0.03191954  0.45899010  0.92688041     0.14800
loop_ 
_geom_bond_atom_site_label_1 
_geom_bond_atom_site_label_2 
_geom_bond_distance 
_geom_bond_site_symmetry_2 
_ccdc_geom_bond_type 
O1           Cu9   2.011       .  S
O1           C11   1.277       .  A
O2           Cu9   2.033   1_655  S
O2           C12   1.280       .  A
O3           Cu9   2.008       .  S
O3           C13   1.277       .  A
O4           Cu9   2.017       .  S
O4           C14   1.277       .  A
O5          Cu10   2.023       .  S
O5           C14   1.280       .  A
O6          Cu10   2.038       .  S
O6           C13   1.281       .  A
O7          Cu10   1.983       .  S
O7           C12   1.274   1_455  A
O8          Cu10   1.992       .  S
O8           C11   1.276       .  A
Cu9         Cu10   2.376       .  S
C11        C4363   1.462       .  S
C12        C4392   1.463       .  S
C13        C4379   1.478       .  S
C14        C4411   1.474       .  S
O15         Cu23   1.997       .  S
O15          C25   1.276       .  A
O16         Cu23   1.984       .  S
O16          C26   1.274   1_554  A
O17         Cu23   2.032       .  S
O17          C27   1.281       .  A
O18         Cu23   2.015       .  S
O18          C28   1.279       .  A
O19         Cu24   2.009       .  S
O19          C28   1.276       .  A
O20         Cu24   2.012       .  S
O20          C27   1.277       .  A
O21         Cu24   2.044       .  S
O21          C26   1.282   1_554  A
O22         Cu24   2.023       .  S
O22          C25   1.280       .  A
Cu23        Cu24   2.375       .  S
C25        C4312   1.470       .  S
C26        C4408   1.470       .  S
C27        C4331   1.476       .  S
C28        C4347   1.467       .  S
O29         Cu37   2.012       .  S
O29          C39   1.276       .  A
O30         Cu37   2.010       .  S
O30          C40   1.276       .  A
O31         Cu37   2.042       .  S
O31          C41   1.281       .  A
O32         Cu37   2.021       .  S
O32          C42   1.279       .  A
O33         Cu38   1.982       .  S
O33          C42   1.273       .  A
O34         Cu38   1.980       .  S
O34          C41   1.274       .  A
O35         Cu38   2.024       .  S
O35          C40   1.280       .  A
O36         Cu38   2.013       .  S
O36          C39   1.279       .  A
Cu37        Cu38   2.376       .  S
C39        C4395   1.469       .  S
C40        C4280   1.474       .  S
C41        C4296   1.471       .  S
C42        C4264   1.461       .  S
O43         Cu51   2.041       .  S
O43          C53   1.281       .  A
O44         Cu51   2.025       .  S
O44          C54   1.280       .  A
O45         Cu51   2.012       .  S
O45          C55   1.276       .  A
O46         Cu51   2.006       .  S
O46          C56   1.277       .  A
O47         Cu52   2.044       .  S
O47          C56   1.281       .  A
O48         Cu52   2.025       .  S
O48          C55   1.280       .  A
O49         Cu52   2.001       .  S
O49          C54   1.276       .  A
O50         Cu52   1.990       .  S
O50          C53   1.274       .  A
Cu51        Cu52   2.374       .  S
C53        C4344   1.471       .  S
C54        C4216   1.471       .  S
C55        C4248   1.473       .  S
C56        C4235   1.481       .  S
O57         Cu65   2.004       .  S
O57          C67   1.276       .  A
O58         Cu65   2.011       .  S
O58          C68   1.277       .  A
O59         Cu65   2.026       .  S
O59          C69   1.279       .  A
O60         Cu65   2.041   1_455  S
O60          C70   1.281       .  A
O61         Cu66   1.990   1_455  S
O61          C70   1.274       .  A
O62         Cu66   1.990       .  S
O62          C69   1.275       .  A
O63         Cu66   2.013       .  S
O63          C68   1.278       .  A
O64         Cu66   2.031       .  S
O64          C67   1.281       .  A
Cu65        Cu66   2.375       .  S
C67        C4184   1.475       .  S
C68        C4203   1.468       .  S
C69        C4168   1.467       .  S
C70        C4251   1.470       .  S
O71         Cu79   2.017       .  S
O71          C81   1.278       .  A
O72         Cu79   2.026       .  S
O72          C82   1.280       .  A
O73         Cu79   1.978   1_554  S
O73          C83   1.274       .  A
O74         Cu79   1.988       .  S
O74          C84   1.275       .  A
O75         Cu80   2.021       .  S
O75          C84   1.279       .  A
O76         Cu80   2.038   1_554  S
O76          C83   1.280       .  A
O77         Cu80   2.009       .  S
O77          C82   1.277       .  A
O78         Cu80   2.013       .  S
O78          C81   1.277       .  A
Cu79        Cu80   2.376       .  S
C81        C4299   1.468       .  S
C82        C4152   1.475       .  S
C83        C4200   1.465       .  S
C84        C4136   1.466       .  S
O85         Cu93   2.020       .  S
O85          C95   1.279       .  A
O86         Cu93   2.000       .  S
O86          C96   1.275       .  A
O87         Cu93   2.011       .  S
O87          C97   1.278       .  A
O88         Cu93   2.030       .  S
O88          C98   1.280       .  A
O89         Cu94   1.984       .  S
O89          C98   1.273       .  A
O90         Cu94   1.990       .  S
O90          C97   1.275       .  A
O91         Cu94   2.013       .  S
O91          C96   1.278       .  A
O92         Cu94   2.015       .  S
O92          C95   1.278       .  A
Cu93        Cu94   2.374       .  S
C95        C4088   1.475       .  S
C96        C4120   1.462       .  S
C97        C4072   1.462       .  S
C98        C4107   1.462       .  S
O99        Cu107   2.027       .  S
O99         C109   1.280       .  A
O100       Cu107   2.013       .  S
O100        C110   1.277       .  A
O101       Cu107   1.985       .  S
O101        C111   1.274       .  A
O102       Cu107   1.998       .  S
O102        C112   1.276       .  A
O103       Cu108   2.041       .  S
O103        C112   1.281       .  A
O104       Cu108   2.038       .  S
O104        C111   1.281       .  A
O105       Cu108   2.003       .  S
O105        C110   1.277       .  A
O106       Cu108   2.001       .  S
O106        C109   1.276       .  A
Cu107      Cu108   2.374       .  S
C109       C4040   1.472       .  S
C110       C4104   1.464       .  S
C111       C4027   1.469       .  S
C112       C4056   1.475       .  S
O113       Cu121   1.975   1_455  S
O113        C123   1.272       .  A
O114       Cu121   1.982       .  S
O114        C124   1.274       .  A
O115       Cu121   2.026       .  S
O115        C125   1.280       .  A
O116       Cu121   2.032       .  S
O116        C126   1.281       .  A
O117       Cu122   2.012       .  S
O117        C126   1.277       .  A
O118       Cu122   2.017       .  S
O118        C125   1.278       .  A
O119       Cu122   2.030       .  S
O119        C124   1.280       .  A
O120       Cu122   2.050   1_455  S
O120        C123   1.282       .  A
Cu121      Cu122   2.374       .  S
C123       C4011   1.469       .  S
C124       C3992   1.468       .  S
C125       C4059   1.475       .  S
C126       C4187   1.477       .  S
O127       Cu135   2.025       .  S
O127        C137   1.279       .  A
O128       Cu135   2.044       .  S
O128        C138   1.282       .  A
O129       Cu135   2.008       .  S
O129        C139   1.277       .  A
O130       Cu135   2.014       .  S
O130        C140   1.276       .  A
O131       Cu136   2.015       .  S
O131        C140   1.279       .  A
O132       Cu136   2.031       .  S
O132        C139   1.280       .  A
O133       Cu136   1.989       .  S
O133        C138   1.274       .  A
O134       Cu136   1.994       .  S
O134        C137   1.276       .  A
Cu135      Cu136   2.375       .  S
C137       C3944   1.469       .  S
C138       C3976   1.469       .  S
C139       C3963   1.477       .  S
C140       C4008   1.469       .  S
O141       Cu149   2.036       .  S
O141        C151   1.282       .  A
O142       Cu149   2.020       .  S
O142        C152   1.279       .  A
O143       Cu149   1.992       .  S
O143        C153   1.276       .  A
O144       Cu149   1.985       .  S
O144        C154   1.274   1_455  A
O145       Cu150   2.025       .  S
O145        C154   1.280   1_455  A
O146       Cu150   2.011       .  S
O146        C153   1.278       .  A
O147       Cu150   2.009       .  S
O147        C152   1.276       .  A
O148       Cu150   2.010       .  S
O148        C151   1.276       .  A
Cu149      Cu150   2.376       .  S
C151       C4376   1.479       .  S
C152       C3928   1.468       .  S
C153       C3915   1.463       .  S
C154       C4123   1.463       .  S
O155       Cu163   1.987       .  S
O155        C165   1.274       .  A
O156       Cu163   1.992       .  S
O156        C166   1.276       .  A
O157       Cu163   2.019       .  S
O157        C167   1.280       .  A
O158       Cu163   2.032       .  S
O158        C168   1.280       .  A
O159       Cu164   2.010       .  S
O159        C168   1.277       .  A
O160       Cu164   2.013       .  S
O160        C167   1.277       .  A
O161       Cu164   2.028       .  S
O161        C166   1.280       .  A
O162       Cu164   2.043       .  S
O162        C165   1.282       .  A
Cu163      Cu164   2.374       .  S
C165       C3931   1.471       .  S
C166       C3880   1.471       .  S
C167       C3979   1.473       .  S
C168       C3896   1.476       .  S
O169       Cu177   2.015       .  S
O169        C179   1.277       .  A
O170       Cu177   2.010       .  S
O170        C180   1.277       .  A
O171       Cu177   2.038       .  S
O171        C181   1.280       .  A
O172       Cu177   2.018       .  S
O172        C182   1.278       .  A
O173       Cu178   2.006       .  S
O173        C182   1.277       .  A
O174       Cu178   2.001       .  S
O174        C181   1.276       .  A
O175       Cu178   2.035       .  S
O175        C180   1.281       .  A
O176       Cu178   2.019       .  S
O176        C179   1.279       .  A
Cu177      Cu178   2.374       .  S
C179       C3864   1.472       .  S
C180       C3832   1.479       .  S
C181       C3848   1.473       .  S
C182       C3816   1.469       .  S
O183       Cu191   2.022       .  S
O183        C193   1.280       .  A
O184       Cu191   2.039       .  S
O184        C194   1.281       .  A
O185       Cu191   1.981       .  S
O185        C195   1.273       .  A
O186       Cu191   1.983       .  S
O186        C196   1.274       .  A
O187       Cu192   2.034       .  S
O187        C196   1.281       .  A
O188       Cu192   2.054       .  S
O188        C195   1.283       .  A
O189       Cu192   2.013       .  S
O189        C194   1.277       .  A
O190       Cu192   2.019       .  S
O190        C193   1.277       .  A
Cu191      Cu192   2.373       .  S
C193       C3851   1.475       .  S
C194       C4232   1.482       .  S
C195       C3803   1.471       .  S
C196       C3784   1.468       .  S
O197       Cu205   2.011       .  S
O197        C207   1.276       .  A
O198       Cu205   2.008   1_554  S
O198        C208   1.277   1_554  A
O199       Cu205   2.046   1_554  S
O199        C209   1.282       .  A
O200       Cu205   2.026       .  S
O200        C210   1.279       .  A
O201       Cu206   1.994       .  S
O201        C210   1.275       .  A
O202       Cu206   1.990   1_554  S
O202        C209   1.274       .  A
O203       Cu206   2.037       .  S
O203        C208   1.281       .  A
O204       Cu206   2.024       .  S
O204        C207   1.280       .  A
Cu205      Cu206   2.374       .  S
C207       C3800   1.473       .  S
C208       C3752   1.479   1_556  S
C209       C3771   1.474       .  S
C210       C3736   1.469       .  S
O211       Cu219   2.043       .  S
O211        C221   1.281       .  A
O212       Cu219   2.021       .  S
O212        C222   1.280       .  A
O213       Cu219   2.022       .  S
O213        C223   1.277       .  A
O214       Cu219   2.021       .  S
O214        C224   1.279       .  A
O215       Cu220   2.036       .  S
O215        C224   1.281       .  A
O216       Cu220   2.022       .  S
O216        C223   1.280       .  A
O217       Cu220   1.987       .  S
O217        C222   1.274       .  A
O218       Cu220   1.978       .  S
O218        C221   1.273       .  A
Cu219      Cu220   2.374       .  S
C221       C3723   1.467       .  S
C222       C3688   1.464       .  S
C223       C3768   1.474       .  S
C224       C3707   1.484       .  S
O225       Cu233   2.023       .  S
O225        C235   1.280       .  A
O226       Cu233   2.036       .  S
O226        C236   1.280       .  A
O227       Cu233   1.993       .  S
O227        C237   1.274       .  A
O228       Cu233   1.998       .  S
O228        C238   1.275       .  A
O229       Cu234   2.020       .  S
O229        C238   1.280       .  A
O230       Cu234   2.038       .  S
O230        C237   1.282       .  A
O231       Cu234   1.996       .  S
O231        C236   1.275       .  A
O232       Cu234   2.002       .  S
O232        C235   1.275       .  A
Cu233      Cu234   2.375       .  S
C235       C3640   1.471       .  S
C236       C3867   1.470   1_554  S
C237       C3656   1.473       .  S
C238       C3675   1.467       .  S
O239       Cu247   1.982       .  S
O239        C249   1.274       .  A
O240       Cu247   1.990       .  S
O240        C250   1.275       .  A
O241       Cu247   2.014       .  S
O241        C251   1.279       .  A
O242       Cu247   2.030       .  S
O242        C252   1.280       .  A
O243       Cu248   2.003       .  S
O243        C252   1.276       .  A
O244       Cu248   2.016       .  S
O244        C251   1.277       .  A
O245       Cu248   2.020       .  S
O245        C250   1.279       .  A
O246       Cu248   2.038       .  S
O246        C249   1.280       .  A
Cu247      Cu248   2.376       .  S
C249       C3672   1.466       .  S
C250       C3624   1.464       .  S
C251       C3720   1.471       .  S
C252       C4283   1.474       .  S
O253       Cu261   2.011       .  S
O253        C263   1.277       .  A
O254       Cu261   2.020       .  S
O254        C264   1.279       .  A
O255       Cu261   2.040       .  S
O255        C265   1.281       .  A
O256       Cu261   2.016       .  S
O256        C266   1.278       .  A
O257       Cu262   1.997       .  S
O257        C266   1.276       .  A
O258       Cu262   1.997       .  S
O258        C265   1.274       .  A
O259       Cu262   2.024       .  S
O259        C264   1.279       .  A
O260       Cu262   2.018       .  S
O260        C263   1.279       .  A
Cu261      Cu262   2.374       .  S
C263       C3608   1.470       .  S
C264       C3579   1.478       .  S
C265       C3592   1.470       .  S
C266       C3560   1.466       .  S
O267       Cu275   2.035       .  S
O267        C277   1.281       .  A
O268       Cu275   2.033       .  S
O268        C278   1.281       .  A
O269       Cu275   2.021       .  S
O269        C279   1.279       .  A
O270       Cu275   2.014       .  S
O270        C280   1.278       .  A
O271       Cu276   2.045       .  S
O271        C280   1.282       .  A
O272       Cu276   2.032       .  S
O272        C279   1.280       .  A
O273       Cu276   1.968       .  S
O273        C278   1.272       .  A
O274       Cu276   1.982       .  S
O274        C277   1.273       .  A
Cu275      Cu276   2.373       .  S
C277       C3544   1.465       .  S
C278       C3531   1.461       .  S
C279       C3595   1.479       .  S
C280       C3704   1.485       .  S
O281       Cu289   2.005       .  S
O281        C291   1.277       .  A
O282       Cu289   2.007       .  S
O282        C292   1.276       .  A
O283       Cu289   2.021       .  S
O283        C293   1.279       .  A
O284       Cu289   2.039       .  S
O284        C294   1.281       .  A
O285       Cu290   1.990       .  S
O285        C294   1.274       .  A
O286       Cu290   1.999       .  S
O286        C293   1.276       .  A
O287       Cu290   2.013       .  S
O287        C292   1.278       .  A
O288       Cu290   2.030       .  S
O288        C291   1.280       .  A
Cu289      Cu290   2.375       .  S
C291       C4091   1.476       .  S
C292       C3547   1.466       .  S
C293       C3496   1.469       .  S
C294       C3515   1.469       .  S
O295       Cu303   2.039       .  S
O295        C305   1.281       .  A
O296       Cu303   2.025       .  S
O296        C306   1.280       .  A
O297       Cu303   1.993       .  S
O297        C307   1.275       .  A
O298       Cu303   1.985       .  S
O298        C308   1.273       .  A
O299       Cu304   2.043       .  S
O299        C308   1.282       .  A
O300       Cu304   2.029       .  S
O300        C307   1.280       .  A
O301       Cu304   2.010       .  S
O301        C306   1.276       .  A
O302       Cu304   2.005       .  S
O302        C305   1.277       .  A
Cu303      Cu304   2.374       .  S
C305       C3467   1.479       .  S
C306       C3512   1.472       .  S
C307       C3448   1.470       .  S
C308       C3483   1.469       .  S
O309       Cu317   1.990       .  S
O309        C319   1.274       .  A
O310       Cu317   1.981       .  S
O310        C320   1.273       .  A
O311       Cu317   2.031       .  S
O311        C321   1.280       .  A
O312       Cu317   2.019       .  S
O312        C322   1.279       .  A
O313       Cu318   2.016       .  S
O313        C322   1.277       .  A
O314       Cu318   2.013       .  S
O314        C321   1.278       .  A
O315       Cu318   2.048       .  S
O315        C320   1.282       .  A
O316       Cu318   2.034       .  S
O316        C319   1.281       .  A
Cu317      Cu318   2.373       .  S
C319       C3416   1.469       .  S
C320       C3435   1.471       .  S
C321       C3835   1.479       .  S
C322       C3480   1.472       .  S
O323       Cu331   2.019       .  S
O323        C333   1.279       .  A
O324       Cu331   2.040       .  S
O324        C334   1.281       .  A
O325       Cu331   2.006       .  S
O325        C335   1.277       .  A
O326       Cu331   2.007       .  S
O326        C336   1.275       .  A
O327       Cu332   2.017       .  S
O327        C336   1.279       .  A
O328       Cu332   2.035       .  S
O328        C335   1.281       .  A
O329       Cu332   1.989       .  S
O329        C334   1.275       .  A
O330       Cu332   1.995       .  S
O330        C333   1.275       .  A
Cu331      Cu332   2.375       .  S
C333       C3403   1.466       .  S
C334       C3611   1.473       .  S
C335       C3960   1.478       .  S
C336       C3432   1.465       .  S
O337       Cu345   2.000       .  S
O337        C347   1.276       .  A
O338       Cu345   2.003       .  S
O338        C348   1.276       .  A
O339       Cu345   2.032       .  S
O339        C349   1.281       .  A
O340       Cu345   2.035       .  S
O340        C350   1.281       .  A
O341       Cu346   1.981       .  S
O341        C350   1.274       .  A
O342       Cu346   1.965       .  S
O342        C349   1.272       .  A
O343       Cu346   2.037       .  S
O343        C348   1.280       .  A
O344       Cu346   2.043       .  S
O344        C347   1.282       .  A
Cu345      Cu346   2.374       .  S
C347       C3576   1.479       .  S
C348       C3384   1.471       .  S
C349       C3352   1.462       .  S
C350       C3368   1.467       .  S
O351       Cu359   2.048       .  S
O351        C361   1.282       .  A
O352       Cu359   2.029       .  S
O352        C362   1.281       .  A
O353       Cu359   2.002       .  S
O353        C363   1.275       .  A
O354       Cu359   2.000       .  S
O354        C364   1.275       .  A
O355       Cu360   2.048       .  S
O355        C364   1.283       .  A
O356       Cu360   2.027       .  S
O356        C363   1.280       .  A
O357       Cu360   1.996       .  S
O357        C362   1.274       .  A
O358       Cu360   1.986       .  S
O358        C361   1.274       .  A
Cu359      Cu360   2.374       .  S
C361       C3336   1.471       .  S
C362       C3304   1.469       .  S
C363       C3371   1.470       .  S
C364       C3320   1.480   1_565  S
O365       Cu373   2.030       .  S
O365        C375   1.280       .  A
O366       Cu373   2.014       .  S
O366        C376   1.278       .  A
O367       Cu373   1.997       .  S
O367        C377   1.275       .  A
O368       Cu373   1.990       .  S
O368        C378   1.274       .  A
O369       Cu374   2.053       .  S
O369        C378   1.283       .  A
O370       Cu374   2.029       .  S
O370        C377   1.280       .  A
O371       Cu374   2.010       .  S
O371        C376   1.276       .  A
O372       Cu374   2.012       .  S
O372        C375   1.278       .  A
Cu373      Cu374   2.374       .  S
C375       C3464   1.479       .  S
C376       C3288   1.466       .  S
C377       C3256   1.471       .  S
C378       C3272   1.475       .  S
O379       Cu387   2.014       .  S
O379        C389   1.277       .  A
O380       Cu387   2.019   1_565  S
O380        C390   1.277       .  A
O381       Cu387   2.023   1_565  S
O381        C391   1.279       .  A
O382       Cu387   2.034       .  S
O382        C392   1.281       .  A
O383       Cu388   1.982   1_545  S
O383        C392   1.273       .  A
O384       Cu388   1.990       .  S
O384        C391   1.275       .  A
O385       Cu388   2.023       .  S
O385        C390   1.280       .  A
O386       Cu388   2.033   1_545  S
O386        C389   1.281       .  A
Cu387      Cu388   2.375   1_545  S
C389       C3243   1.479       .  S
C390       C3339   1.475       .  S
C391       C3224   1.467       .  S
C392       C3291   1.466       .  S
O393       Cu401   2.001       .  S
O393        C403   1.276       .  A
O394       Cu401   2.008       .  S
O394        C404   1.276       .  A
O395       Cu401   2.024       .  S
O395        C405   1.280       .  A
O396       Cu401   2.038       .  S
O396        C406   1.281       .  A
O397       Cu402   1.988       .  S
O397        C406   1.275       .  A
O398       Cu402   1.999       .  S
O398        C405   1.275       .  A
O399       Cu402   2.030       .  S
O399        C404   1.281       .  A
O400       Cu402   2.043       .  S
O400        C403   1.282       .  A
Cu401      Cu402   2.374       .  S
C403       C3192   1.479       .  S
C404       C3275   1.473       .  S
C405       C3179   1.470       .  S
C406       C3211   1.471       .  S
O407       Cu415   2.017       .  S
O407        C417   1.279       .  A
O408       Cu415   2.018       .  S
O408        C418   1.278       .  A
O409       Cu415   2.003       .  S
O409        C419   1.276       .  A
O410       Cu415   1.996       .  S
O410        C420   1.275       .  A
O411       Cu416   2.034       .  S
O411        C420   1.280       .  A
O412       Cu416   2.013       .  S
O412        C419   1.278       .  A
O413       Cu416   2.007       .  S
O413        C418   1.277       .  A
O414       Cu416   2.017       .  S
O414        C417   1.278       .  A
Cu415      Cu416   2.372       .  S
C417       C3160   1.474       .  S
C418       C3208   1.468       .  S
C419       C3147   1.466       .  S
C420       C3387   1.470   1_545  S
O421       Cu429   2.027       .  S
O421        C431   1.280   1_554  A
O422       Cu429   2.027       .  S
O422        C432   1.280       .  A
O423       Cu429   1.997       .  S
O423        C433   1.275       .  A
O424       Cu429   1.990       .  S
O424        C434   1.274       .  A
O425       Cu430   2.045       .  S
O425        C434   1.282       .  A
O426       Cu430   2.037       .  S
O426        C433   1.281       .  A
O427       Cu430   1.973       .  S
O427        C432   1.273       .  A
O428       Cu430   1.987       .  S
O428        C431   1.274   1_554  A
Cu429      Cu430   2.373       .  S
C431       C3115   1.464       .  S
C432       C3099   1.463       .  S
C433       C3131   1.471       .  S
C434       C3659   1.473       .  S
O435       Cu443   2.026       .  S
O435        C445   1.280       .  A
O436       Cu443   2.014       .  S
O436        C446   1.277       .  A
O437       Cu443   2.013       .  S
O437        C447   1.278       .  A
O438       Cu443   2.031       .  S
O438        C448   1.280       .  A
O439       Cu444   2.008       .  S
O439        C448   1.276       .  A
O440       Cu444   2.008       .  S
O440        C447   1.277       .  A
O441       Cu444   2.032       .  S
O441        C446   1.280       .  A
O442       Cu444   2.031       .  S
O442        C445   1.280       .  A
Cu443      Cu444   2.372       .  S
C445       C3064   1.484       .  S
C446       C3080   1.477       .  S
C447       C3048   1.469       .  S
C448       C3128   1.472   1_545  S
O449       Cu457   1.999       .  S
O449        C459   1.276       .  A
O450       Cu457   2.001       .  S
O450        C460   1.275       .  A
O451       Cu457   2.022       .  S
O451        C461   1.280       .  A
O452       Cu457   2.041       .  S
O452        C462   1.282       .  A
O453       Cu458   1.989       .  S
O453        C462   1.274       .  A
O454       Cu458   1.995       .  S
O454        C461   1.275       .  A
O455       Cu458   2.020       .  S
O455        C460   1.280       .  A
O456       Cu458   2.037   1_545  S
O456        C459   1.281   1_545  A
Cu457      Cu458   2.375       .  S
C459       C3195   1.476   1_565  S
C460       C3112   1.466       .  S
C461       C3019   1.466       .  S
C462       C3035   1.472       .  S
O463       Cu471   2.025       .  S
O463        C473   1.280       .  A
O464       Cu471   2.044       .  S
O464        C474   1.282       .  A
O465       Cu471   1.997       .  S
O465        C475   1.276       .  A
O466       Cu471   1.997       .  S
O466        C476   1.276       .  A
O467       Cu472   2.022       .  S
O467        C476   1.279       .  A
O468       Cu472   2.044       .  S
O468        C475   1.281       .  A
O469       Cu472   1.999       .  S
O469        C474   1.275       .  A
O470       Cu472   2.000       .  S
O470        C473   1.275       .  A
Cu471      Cu472   2.374       .  S
C473       C3000   1.468       .  S
C474       C3323   1.478       .  S
C475       C3083   1.476       .  S
C476       C2984   1.469       .  S
O477       Cu485   1.985       .  S
O477        C487   1.274       .  A
O478       Cu485   1.975   1_554  S
O478        C488   1.273       .  A
O479       Cu485   2.033       .  S
O479        C489   1.281       .  A
O480       Cu485   2.022       .  S
O480        C490   1.279       .  A
O481       Cu486   2.010       .  S
O481        C490   1.276       .  A
O482       Cu486   2.008   1_554  S
O482        C489   1.277   1_554  A
O483       Cu486   2.047   1_554  S
O483        C488   1.282       .  A
O484       Cu486   2.034       .  S
O484        C487   1.281       .  A
Cu485      Cu486   2.374       .  S
C487       C2955   1.471       .  S
C488       C3003   1.469       .  S
C489       C3755   1.478   1_556  S
C490       C2971   1.470       .  S
O491       Cu499   2.013   1_565  S
O491        C501   1.279       .  A
O492       Cu499   2.031       .  S
O492        C502   1.279       .  A
O493       Cu499   2.009       .  S
O493        C503   1.277       .  A
O494       Cu499   2.016   1_565  S
O494        C504   1.277       .  A
O495       Cu500   2.018       .  S
O495        C504   1.278       .  A
O496       Cu500   2.027       .  S
O496        C503   1.280   1_565  A
O497       Cu500   1.991   1_545  S
O497        C502   1.276       .  A
O498       Cu500   2.009       .  S
O498        C501   1.276       .  A
Cu499      Cu500   2.375   1_545  S
C501       C2920   1.470       .  S
C502       C2968   1.469       .  S
C503       C2936   1.474       .  S
C504       C3032   1.469       .  S
O505       Cu513   1.985       .  S
O505        C515   1.275       .  A
O506       Cu513   1.983       .  S
O506        C516   1.273       .  A
O507       Cu513   2.030       .  S
O507        C517   1.280       .  A
O508       Cu513   2.015       .  S
O508        C518   1.280       .  A
O509       Cu514   2.010       .  S
O509        C518   1.276       .  A
O510       Cu514   2.002       .  S
O510        C517   1.276       .  A
O511       Cu514   2.040       .  S
O511        C516   1.281       .  A
O512       Cu514   2.023       .  S
O512        C515   1.279       .  A
Cu513      Cu514   2.376       .  S
C515       C2872   1.466       .  S
C516       C2888   1.467   1_554  S
C517       C4328   1.474       .  S
C518       C2907   1.469       .  S
O519       Cu527   2.041       .  S
O519        C529   1.281       .  A
O520       Cu527   2.024   1_565  S
O520        C530   1.279       .  A
O521       Cu527   2.013   1_565  S
O521        C531   1.277       .  A
O522       Cu527   2.004       .  S
O522        C532   1.276       .  A
O523       Cu528   2.027   1_545  S
O523        C532   1.280       .  A
O524       Cu528   2.015       .  S
O524        C531   1.279       .  A
O525       Cu528   1.994       .  S
O525        C530   1.276       .  A
O526       Cu528   1.981   1_545  S
O526        C529   1.273       .  A
Cu527      Cu528   2.376   1_545  S
C529       C2904   1.465       .  S
C530       C2843   1.469       .  S
C531       C2856   1.469       .  S
C532       C2939   1.473       .  S
O533       Cu541   1.976       .  S
O533        C543   1.272   1_455  A
O534       Cu541   1.985       .  S
O534        C544   1.273       .  A
O535       Cu541   2.024       .  S
O535        C545   1.280       .  A
O536       Cu541   2.033       .  S
O536        C546   1.280       .  A
O537       Cu542   2.013       .  S
O537        C546   1.277       .  A
O538       Cu542   2.019       .  S
O538        C545   1.277       .  A
O539       Cu542   2.033       .  S
O539        C544   1.281       .  A
O540       Cu542   2.050   1_655  S
O540        C543   1.282       .  A
Cu541      Cu542   2.374       .  S
C543       C2859   1.469       .  S
C544       C2792   1.467       .  S
C545       C2824   1.476       .  S
C546       C2808   1.478       .  S
O547       Cu555   2.048   1_554  S
O547        C557   1.282       .  A
O548       Cu555   2.024       .  S
O548        C558   1.279       .  A
O549       Cu555   2.019       .  S
O549        C559   1.277       .  A
O550       Cu555   2.012   1_554  S
O550        C560   1.277   1_554  A
O551       Cu556   2.027       .  S
O551        C560   1.280       .  A
O552       Cu556   2.013       .  S
O552        C559   1.278       .  A
O553       Cu556   1.995       .  S
O553        C558   1.276       .  A
O554       Cu556   1.993   1_554  S
O554        C557   1.275       .  A
Cu555      Cu556   2.375       .  S
C557       C2827   1.474       .  S
C558       C2763   1.469       .  S
C559       C2776   1.468       .  S
C560       C4155   1.476       .  S
O561       Cu569   2.017       .  S
O561        C571   1.278       .  A
O562       Cu569   2.017       .  S
O562        C572   1.277       .  A
O563       Cu569   2.023       .  S
O563        C573   1.280       .  A
O564       Cu569   2.044       .  S
O564        C574   1.282       .  A
O565       Cu570   1.980       .  S
O565        C574   1.274       .  A
O566       Cu570   1.991       .  S
O566        C573   1.275       .  A
O567       Cu570   2.036       .  S
O567        C572   1.281       .  A
O568       Cu570   2.044       .  S
O568        C571   1.282       .  A
Cu569      Cu570   2.373       .  S
C571       C3067   1.485       .  S
C572       C2744   1.478       .  S
C573       C2728   1.467       .  S
C574       C2779   1.471   1_545  S
O575       Cu583   2.018       .  S
O575        C585   1.280       .  A
O576       Cu583   2.037       .  S
O576        C586   1.281       .  A
O577       Cu583   1.996   1_455  S
O577        C587   1.275       .  A
O578       Cu583   2.004       .  S
O578        C588   1.276       .  A
O579       Cu584   2.032       .  S
O579        C588   1.281       .  A
O580       Cu584   2.052   1_455  S
O580        C587   1.283       .  A
O581       Cu584   2.004       .  S
O581        C586   1.276       .  A
O582       Cu584   2.008       .  S
O582        C585   1.276       .  A
Cu583      Cu584   2.374       .  S
C585       C2891   1.468       .  S
C586       C2715   1.476       .  S
C587       C2747   1.478       .  S
C588       C2696   1.474       .  S
O589       Cu597   2.002       .  S
O589        C599   1.276       .  A
O590       Cu597   2.003       .  S
O590        C600   1.276       .  A
O591       Cu597   2.044       .  S
O591        C601   1.281   1_455  A
O592       Cu597   2.031       .  S
O592        C602   1.281       .  A
O593       Cu598   1.994       .  S
O593        C602   1.275       .  A
O594       Cu598   1.985       .  S
O594        C601   1.275   1_455  A
O595       Cu598   2.034       .  S
O595        C600   1.281       .  A
O596       Cu598   2.017       .  S
O596        C599   1.279       .  A
Cu597      Cu598   2.375       .  S
C599       C2683   1.467       .  S
C600       C2811   1.477       .  S
C601       C2664   1.471       .  S
C602       C2651   1.471       .  S
O603       Cu611   2.046       .  S
O603        C613   1.282       .  A
O604       Cu611   2.034       .  S
O604        C614   1.281       .  A
O605       Cu611   2.006       .  S
O605        C615   1.276       .  A
O606       Cu611   2.004       .  S
O606        C616   1.275       .  A
O607       Cu612   2.030       .  S
O607        C616   1.281       .  A
O608       Cu612   2.024       .  S
O608        C615   1.280       .  A
O609       Cu612   1.995       .  S
O609        C614   1.275       .  A
O610       Cu612   1.981       .  S
O610        C613   1.273       .  A
Cu611      Cu612   2.375       .  S
C613       C2632   1.468   1_545  S
C614       C2616   1.474       .  S
C615       C2667   1.470       .  S
C616       C3163   1.473       .  S
O617       Cu625   1.989       .  S
O617        C627   1.275       .  A
O618       Cu625   1.983       .  S
O618        C628   1.274       .  A
O619       Cu625   2.028       .  S
O619        C629   1.281       .  A
O620       Cu625   2.015       .  S
O620        C630   1.279       .  A
O621       Cu626   2.009       .  S
O621        C630   1.276       .  A
O622       Cu626   2.007       .  S
O622        C629   1.276       .  A
O623       Cu626   2.041       .  S
O623        C628   1.281       .  A
O624       Cu626   2.026       .  S
O624        C627   1.280       .  A
Cu625      Cu626   2.375       .  S
C627       C2587   1.468       .  S
C628       C2603   1.468       .  S
C629       C3899   1.475       .  S
C630       C2635   1.468       .  S
O631       Cu639   2.032       .  S
O631        C641   1.280       .  A
O632       Cu639   2.025       .  S
O632        C642   1.281       .  A
O633       Cu639   1.988       .  S
O633        C643   1.274       .  A
O634       Cu639   1.978       .  S
O634        C644   1.272       .  A
O635       Cu640   2.030       .  S
O635        C644   1.280       .  A
O636       Cu640   2.016       .  S
O636        C643   1.279       .  A
O637       Cu640   2.007       .  S
O637        C642   1.276       .  A
O638       Cu640   2.000       .  S
O638        C641   1.276       .  A
Cu639      Cu640   2.377       .  S
C641       C4043   1.473       .  S
C642       C2571   1.471       .  S
C643       C2552   1.463       .  S
C644       C2680   1.458       .  S
O645       Cu653   1.988   1_545  S
O645        C655   1.274       .  A
O646       Cu653   1.994       .  S
O646        C656   1.275       .  A
O647       Cu653   2.026       .  S
O647        C657   1.280       .  A
O648       Cu653   2.039   1_545  S
O648        C658   1.282       .  A
O649       Cu654   2.008       .  S
O649        C658   1.276       .  A
O650       Cu654   2.011   1_565  S
O650        C657   1.276       .  A
O651       Cu654   2.022   1_565  S
O651        C656   1.279       .  A
O652       Cu654   2.046       .  S
O652        C655   1.282       .  A
Cu653      Cu654   2.374   1_565  S
C655       C2568   1.472       .  S
C656       C2520   1.468       .  S
C657       C2539   1.471       .  S
C658       C3240   1.478       .  S
O659       Cu667   2.037   1_545  S
O659        C669   1.282   1_545  A
O660       Cu667   2.027       .  S
O660        C670   1.280       .  A
O661       Cu667   1.985       .  S
O661        C671   1.275       .  A
O662       Cu667   1.986   1_455  S
O662        C672   1.275       .  A
O663       Cu668   2.047   1_455  S
O663        C672   1.282       .  A
O664       Cu668   2.028       .  S
O664        C671   1.280       .  A
O665       Cu668   2.002       .  S
O665        C670   1.276       .  A
O666       Cu668   2.004       .  S
O666        C669   1.276       .  A
Cu667      Cu668   2.374       .  S
C669       C2712   1.477   1_565  S
C670       C2600   1.472       .  S
C671       C2504   1.468       .  S
C672       C2536   1.475       .  S
O673       Cu681   2.011       .  S
O673        C683   1.276       .  A
O674       Cu681   2.001       .  S
O674        C684   1.276       .  A
O675       Cu681   2.034       .  S
O675        C685   1.280       .  A
O676       Cu681   2.016       .  S
O676        C686   1.278       .  A
O677       Cu682   1.998       .  S
O677        C686   1.276       .  A
O678       Cu682   1.991       .  S
O678        C685   1.275       .  A
O679       Cu682   2.035       .  S
O679        C684   1.280       .  A
O680       Cu682   2.022       .  S
O680        C683   1.280       .  A
Cu681      Cu682   2.375       .  S
C683       C2491   1.471       .  S
C684       C2459   1.475       .  S
C685       C2475   1.468       .  S
C686       C3819   1.467       .  S
O687       Cu695   2.012       .  S
O687        C697   1.278       .  A
O688       Cu695   2.028       .  S
O688        C698   1.280       .  A
O689       Cu695   2.012       .  S
O689        C699   1.278       .  A
O690       Cu695   2.004       .  S
O690        C700   1.276       .  A
O691       Cu696   2.014       .  S
O691        C700   1.279       .  A
O692       Cu696   2.009       .  S
O692        C699   1.278       .  A
O693       Cu696   1.993       .  S
O693        C698   1.274       .  A
O694       Cu696   2.002       .  S
O694        C697   1.276       .  A
Cu695      Cu696   2.374       .  S
C697       C4139   1.465       .  S
C698       C2440   1.464       .  S
C699       C2424   1.469       .  S
C700       C2472   1.466       .  S
O701       Cu709   2.004       .  S
O701        C711   1.277       .  A
O702       Cu709   2.009       .  S
O702        C712   1.276       .  A
O703       Cu709   2.016       .  S
O703        C713   1.279       .  A
O704       Cu709   2.034       .  S
O704        C714   1.280       .  A
O705       Cu710   1.969       .  S
O705        C714   1.272       .  A
O706       Cu710   1.978       .  S
O706        C713   1.273       .  A
O707       Cu710   2.023       .  S
O707        C712   1.280       .  A
O708       Cu710   2.032       .  S
O708        C711   1.281       .  A
Cu709      Cu710   2.376       .  S
C711       C2376   1.475       .  S
C712       C2411   1.471       .  S
C713       C3355   1.459       .  S
C714       C2392   1.461       .  S
O715       Cu723   2.016       .  S
O715        C725   1.279       .  A
O716       Cu723   2.036       .  S
O716        C726   1.281       .  A
O717       Cu723   1.992       .  S
O717        C727   1.275       .  A
O718       Cu723   2.001       .  S
O718        C728   1.276       .  A
O719       Cu724   2.023       .  S
O719        C728   1.280       .  A
O720       Cu724   2.039       .  S
O720        C727   1.281       .  A
O721       Cu724   1.993       .  S
O721        C726   1.276       .  A
O722       Cu724   2.002       .  S
O722        C725   1.274       .  A
Cu723      Cu724   2.375       .  S
C725       C2395   1.463       .  S
C726       C2360   1.475       .  S
C727       C2488   1.471       .  S
C728       C2923   1.469       .  S
O729       Cu737   1.990       .  S
O729        C739   1.275       .  A
O730       Cu737   1.998       .  S
O730        C740   1.275       .  A
O731       Cu737   2.036       .  S
O731        C741   1.281       .  A
O732       Cu737   2.034       .  S
O732        C742   1.281       .  A
O733       Cu738   1.977       .  S
O733        C742   1.273       .  A
O734       Cu738   1.969       .  S
O734        C741   1.273       .  A
O735       Cu738   2.023       .  S
O735        C740   1.279       .  A
O736       Cu738   2.030       .  S
O736        C739   1.280       .  A
Cu737      Cu738   2.374       .  S
C739       C2328   1.467       .  S
C740       C2443   1.466       .  S
C741       C4075   1.465       .  S
C742       C2347   1.464       .  S
O743       Cu751   2.037       .  S
O743        C753   1.281       .  A
O744       Cu751   2.015       .  S
O744        C754   1.279       .  A
O745       Cu751   1.993       .  S
O745        C755   1.275       .  A
O746       Cu751   1.983       .  S
O746        C756   1.273       .  A
O747       Cu752   2.039       .  S
O747        C756   1.281       .  A
O748       Cu752   2.019       .  S
O748        C755   1.279       .  A
O749       Cu752   2.005       .  S
O749        C754   1.275       .  A
O750       Cu752   2.004       .  S
O750        C753   1.276       .  A
Cu751      Cu752   2.376       .  S
C753       C2312   1.477       .  S
C754       C2344   1.465       .  S
C755       C2507   1.466       .  S
C756       C2408   1.466       .  S
O757       Cu765   2.007       .  S
O757        C767   1.276       .  A
O758       Cu765   2.006       .  S
O758        C768   1.276       .  A
O759       Cu765   2.025       .  S
O759        C769   1.279       .  A
O760       Cu765   2.036       .  S
O760        C770   1.281       .  A
O761       Cu766   1.980       .  S
O761        C770   1.272       .  A
O762       Cu766   1.986       .  S
O762        C769   1.274       .  A
O763       Cu766   2.025       .  S
O763        C768   1.280       .  A
O764       Cu766   2.044       .  S
O764        C767   1.282       .  A
Cu765      Cu766   2.375       .  S
C767       C2264   1.481       .  S
C768       C2296   1.470       .  S
C769       C2523   1.466       .  S
C770       C2280   1.463       .  S
O771       Cu779   2.035       .  S
O771        C781   1.280       .  A
O772       Cu779   2.022       .  S
O772        C782   1.279       .  A
O773       Cu779   2.009       .  S
O773        C783   1.277       .  A
O774       Cu779   2.006       .  S
O774        C784   1.277       .  A
O775       Cu780   2.028       .  S
O775        C784   1.280       .  A
O776       Cu780   2.012       .  S
O776        C783   1.278       .  A
O777       Cu780   1.989       .  S
O777        C782   1.275       .  A
O778       Cu780   1.982       .  S
O778        C781   1.274       .  A
Cu779      Cu780   2.376       .  S
C781       C2251   1.465       .  S
C782       C3912   1.465       .  S
C783       C2283   1.467       .  S
C784       C2232   1.476       .  S
O785       Cu793   2.031       .  S
O785        C795   1.281       .  A
O786       Cu793   2.016       .  S
O786        C796   1.279       .  A
O787       Cu793   1.992       .  S
O787        C797   1.275       .  A
O788       Cu793   1.985       .  S
O788        C798   1.274       .  A
O789       Cu794   2.040       .  S
O789        C798   1.281       .  A
O790       Cu794   2.024       .  S
O790        C797   1.280       .  A
O791       Cu794   2.005       .  S
O791        C796   1.275       .  A
O792       Cu794   2.002       .  S
O792        C795   1.276       .  A
Cu793      Cu794   2.376       .  S
C795       C2184   1.474       .  S
C796       C2216   1.467       .  S
C797       C3787   1.469       .  S
C798       C2200   1.467       .  S
O799       Cu807   1.984       .  S
O799        C809   1.274       .  A
O800       Cu807   1.976       .  S
O800        C810   1.273       .  A
O801       Cu807   2.032       .  S
O801        C811   1.280       .  A
O802       Cu807   2.020       .  S
O802        C812   1.279       .  A
O803       Cu808   2.006       .  S
O803        C812   1.276       .  A
O804       Cu808   2.003       .  S
O804        C811   1.277       .  A
O805       Cu808   2.037       .  S
O805        C810   1.280       .  A
O806       Cu808   2.026       .  S
O806        C809   1.280       .  A
Cu807      Cu808   2.375       .  S
C809       C3563   1.466       .  S
C810       C2219   1.463       .  S
C811       C2379   1.476       .  S
C812       C2248   1.469       .  S
O813       Cu821   2.025       .  S
O813        C823   1.280       .  A
O814       Cu821   2.038       .  S
O814        C824   1.281       .  A
O815       Cu821   2.003       .  S
O815        C825   1.277       .  A
O816       Cu821   2.006       .  S
O816        C826   1.277       .  A
O817       Cu822   2.015       .  S
O817        C826   1.278       .  A
O818       Cu822   2.031       .  S
O818        C825   1.280       .  A
O819       Cu822   1.984       .  S
O819        C824   1.274       .  A
O820       Cu822   1.992       .  S
O820        C823   1.275       .  A
Cu821      Cu822   2.375       .  S
C823       C2760   1.468       .  S
C824       C2299   1.467       .  S
C825       C2427   1.474       .  S
C826       C2168   1.469       .  S
O827       Cu835   2.000       .  S
O827        C837   1.276       .  A
O828       Cu835   2.000       .  S
O828        C838   1.276       .  A
O829       Cu835   2.038       .  S
O829        C839   1.280       .  A
O830       Cu835   2.022       .  S
O830        C840   1.280       .  A
O831       Cu836   1.991       .  S
O831        C840   1.274       .  A
O832       Cu836   1.989       .  S
O832        C839   1.275       .  A
O833       Cu836   2.038       .  S
O833        C838   1.281       .  A
O834       Cu836   2.020       .  S
O834        C837   1.279       .  A
Cu835      Cu836   2.375       .  S
C837       C2203   1.468       .  S
C838       C2152   1.477       .  S
C839       C2171   1.469       .  S
C840       C3016   1.466       .  S
O841       Cu849   2.003       .  S
O841        C851   1.276       .  A
O842       Cu849   2.019       .  S
O842        C852   1.278       .  A
O843       Cu849   2.033       .  S
O843        C853   1.280       .  A
O844       Cu849   2.014       .  S
O844        C854   1.278       .  A
O845       Cu850   2.006       .  S
O845        C854   1.277       .  A
O846       Cu850   1.996       .  S
O846        C853   1.275       .  A
O847       Cu850   2.015       .  S
O847        C852   1.279       .  A
O848       Cu850   2.014       .  S
O848        C851   1.278       .  A
Cu849      Cu850   2.374       .  S
C851       C2136   1.466       .  S
C852       C2104   1.474       .  S
C853       C2123   1.467       .  S
C854       C3883   1.468       .  S
O855       Cu863   2.032       .  S
O855        C865   1.280       .  A
O856       Cu863   2.016       .  S
O856        C866   1.280       .  A
O857       Cu863   2.012       .  S
O857        C867   1.276       .  A
O858       Cu863   2.008       .  S
O858        C868   1.277       .  A
O859       Cu864   2.038       .  S
O859        C868   1.281       .  A
O860       Cu864   2.023       .  S
O860        C867   1.280       .  A
O861       Cu864   1.986       .  S
O861        C866   1.273       .  A
O862       Cu864   1.978       .  S
O862        C865   1.273       .  A
Cu863      Cu864   2.376       .  S
C865       C2139   1.462       .  S
C866       C3528   1.462       .  S
C867       C2091   1.472       .  S
C868       C2072   1.480       .  S
O869       Cu877   2.041       .  S
O869        C879   1.282       .  A
O870       Cu877   2.029       .  S
O870        C880   1.279       .  A
O871       Cu877   1.985       .  S
O871        C881   1.274       .  A
O872       Cu877   1.999       .  S
O872        C882   1.276       .  A
O873       Cu878   2.038       .  S
O873        C882   1.281       .  A
O874       Cu878   2.041       .  S
O874        C881   1.281       .  A
O875       Cu878   1.997       .  S
O875        C880   1.275       .  A
O876       Cu878   1.995       .  S
O876        C879   1.274       .  A
Cu877      Cu878   2.372       .  S
C879       C2187   1.475       .  S
C880       C2120   1.467       .  S
C881       C4219   1.473       .  S
C882       C2056   1.474       .  S
O883       Cu891   1.998       .  S
O883        C893   1.276       .  A
O884       Cu891   2.000       .  S
O884        C894   1.275       .  A
O885       Cu891   2.021       .  S
O885        C895   1.279       .  A
O886       Cu891   2.042       .  S
O886        C896   1.281       .  A
O887       Cu892   1.985       .  S
O887        C896   1.273       .  A
O888       Cu892   1.991       .  S
O888        C895   1.275       .  A
O889       Cu892   2.023       .  S
O889        C894   1.279       .  A
O890       Cu892   2.041       .  S
O890        C893   1.282       .  A
Cu891      Cu892   2.375       .  S
C893       C2267   1.478       .  S
C894       C2040   1.466       .  S
C895       C3227   1.466       .  S
C896       C2088   1.468       .  S
O897       Cu905   2.024       .  S
O897        C907   1.279       .  A
O898       Cu905   2.013       .  S
O898        C908   1.279       .  A
O899       Cu905   1.976       .  S
O899        C909   1.273       .  A
O900       Cu905   1.967       .  S
O900        C910   1.273       .  A
O901       Cu906   2.042       .  S
O901        C910   1.281       .  A
O902       Cu906   2.026       .  S
O902        C909   1.280       .  A
O903       Cu906   1.995       .  S
O903        C908   1.274       .  A
O904       Cu906   1.986       .  S
O904        C907   1.275       .  A
Cu905      Cu906   2.377       .  S
C907       C2011   1.466       .  S
C908       C2024   1.462       .  S
C909       C3096   1.462       .  S
C910       C2043   1.465       .  S
O911       Cu919   2.005       .  S
O911        C921   1.276       .  A
O912       Cu919   2.008       .  S
O912        C922   1.277       .  A
O913       Cu919   2.024       .  S
O913        C923   1.280       .  A
O914       Cu919   2.038       .  S
O914        C924   1.281       .  A
O915       Cu920   1.978       .  S
O915        C924   1.273       .  A
O916       Cu920   1.988       .  S
O916        C923   1.274       .  A
O917       Cu920   2.018       .  S
O917        C922   1.279       .  A
O918       Cu920   2.030       .  S
O918        C921   1.280       .  A
Cu919      Cu920   2.376       .  S
C921       C1995   1.474       .  S
C922       C2059   1.469       .  S
C923       C2795   1.466       .  S
C924       C2027   1.464       .  S
O925       Cu933   1.994       .  S
O925        C935   1.276       .  A
O926       Cu933   2.004       .  S
O926        C936   1.275       .  A
O927       Cu933   2.027       .  S
O927        C937   1.280       .  A
O928       Cu933   2.043       .  S
O928        C938   1.281       .  A
O929       Cu934   1.994       .  S
O929        C938   1.275       .  A
O930       Cu934   2.002       .  S
O930        C937   1.276       .  A
O931       Cu934   2.025       .  S
O931        C936   1.280       .  A
O932       Cu934   2.039       .  S
O932        C935   1.281       .  A
Cu933      Cu934   2.374       .  S
C935       C1947   1.475       .  S
C936       C1976   1.470       .  S
C937       C2952   1.472       .  S
C938       C1960   1.471       .  S
O939       Cu947   1.997       .  S
O939        C949   1.275       .  A
O940       Cu947   1.984       .  S
O940        C950   1.273       .  A
O941       Cu947   2.025       .  S
O941        C951   1.280       .  A
O942       Cu947   2.012       .  S
O942        C952   1.278       .  A
O943       Cu948   2.004       .  S
O943        C952   1.275       .  A
O944       Cu948   2.003       .  S
O944        C951   1.277       .  A
O945       Cu948   2.049       .  S
O945        C950   1.282       .  A
O946       Cu948   2.031       .  S
O946        C949   1.281       .  A
Cu947      Cu948   2.375       .  S
C949       C3419   1.471       .  S
C950       C1915   1.470       .  S
C951       C2456   1.473       .  S
C952       C1928   1.462       .  S
O953       Cu961   2.031       .  S
O953        C963   1.280       .  A
O954       Cu961   2.042       .  S
O954        C964   1.282       .  A
O955       Cu961   2.004       .  S
O955        C965   1.276       .  A
O956       Cu961   2.009       .  S
O956        C966   1.277       .  A
O957       Cu962   2.025       .  S
O957        C966   1.280       .  A
O958       Cu962   2.030       .  S
O958        C965   1.281       .  A
O959       Cu962   1.975       .  S
O959        C964   1.272       .  A
O960       Cu962   1.977       .  S
O960        C963   1.274       .  A
Cu961      Cu962   2.375       .  S
C963       C3144   1.467       .  S
C964       C1931   1.467       .  S
C965       C1896   1.473       .  S
C966       C1963   1.474       .  S
O967       Cu975   2.041       .  S
O967        C977   1.282       .  A
O968       Cu975   2.025       .  S
O968        C978   1.280       .  A
O969       Cu975   2.001       .  S
O969        C979   1.275       .  A
O970       Cu975   1.989       .  S
O970        C980   1.274       .  A
O971       Cu976   2.045       .  S
O971        C980   1.282       .  A
O972       Cu976   2.030       .  S
O972        C979   1.281       .  A
O973       Cu976   2.003       .  S
O973        C978   1.275       .  A
O974       Cu976   1.998       .  S
O974        C977   1.275       .  A
Cu975      Cu976   2.374       .  S
C977       C2315   1.476       .  S
C978       C1883   1.467       .  S
C979       C2699   1.473       .  S
C980       C1979   1.472       .  S
O981       Cu989   2.023       .  S
O981        C991   1.280       .  A
O982       Cu989   2.037       .  S
O982        C992   1.282       .  A
O983       Cu989   1.985       .  S
O983        C993   1.274       .  A
O984       Cu989   1.996       .  S
O984        C994   1.274       .  A
O985       Cu990   2.028       .  S
O985        C994   1.281       .  A
O986       Cu990   2.044       .  S
O986        C993   1.282       .  A
O987       Cu990   2.007       .  S
O987        C992   1.276       .  A
O988       Cu990   2.010       .  S
O988        C991   1.276       .  A
Cu989      Cu990   2.374       .  S
C991       C1912   1.472       .  S
C992       C1848   1.478       .  S
C993       C1867   1.470       .  S
C994       C4024   1.470       .  S
O995      Cu1003   2.009       .  S
O995       C1005   1.276       .  A
O996      Cu1003   2.002       .  S
O996       C1006   1.275       .  A
O997      Cu1003   2.040       .  S
O997       C1007   1.282       .  A
O998      Cu1003   2.020       .  S
O998       C1008   1.280       .  A
O999      Cu1004   1.984       .  S
O999       C1008   1.273       .  A
O1000     Cu1004   1.977       .  S
O1000      C1007   1.273       .  A
O1001     Cu1004   2.035       .  S
O1001      C1006   1.281       .  A
O1002     Cu1004   2.026       .  S
O1002      C1005   1.280       .  A
Cu1003    Cu1004   2.376       .  S
C1005      C1864   1.472       .  S
C1006      C1835   1.474       .  S
C1007      C1880   1.467       .  S
C1008      C4267   1.462       .  S
O1009     Cu1017   1.995       .  S
O1009      C1019   1.276       .  A
O1010     Cu1017   2.001       .  S
O1010      C1020   1.275       .  A
O1011     Cu1017   2.024       .  S
O1011      C1021   1.279       .  A
O1012     Cu1017   2.039       .  S
O1012      C1022   1.281       .  A
O1013     Cu1018   2.003       .  S
O1013      C1022   1.276       .  A
O1014     Cu1018   2.005       .  S
O1014      C1021   1.276       .  A
O1015     Cu1018   2.025       .  S
O1015      C1020   1.280       .  A
O1016     Cu1018   2.047       .  S
O1016      C1019   1.282       .  A
Cu1017    Cu1018   2.373       .  S
C1019      C1800   1.478       .  S
C1020      C3176   1.470       .  S
C1021      C1816   1.470       .  S
C1022      C2155   1.478       .  S
O1023     Cu1031   2.043       .  S
O1023      C1033   1.282       .  A
O1024     Cu1031   2.028       .  S
O1024      C1034   1.280       .  A
O1025     Cu1031   1.987       .  S
O1025      C1035   1.275       .  A
O1026     Cu1031   1.978       .  S
O1026      C1036   1.273       .  A
O1027     Cu1032   2.033       .  S
O1027      C1036   1.280       .  A
O1028     Cu1032   2.017       .  S
O1028      C1035   1.278       .  A
O1029     Cu1032   2.019       .  S
O1029      C1034   1.278       .  A
O1030     Cu1032   2.010       .  S
O1030      C1033   1.277       .  A
Cu1031    Cu1032   2.375       .  S
C1033      C1851   1.480       .  S
C1034      C1803   1.476       .  S
C1035      C2555   1.463       .  S
C1036      C1787   1.462       .  S
O1037     Cu1045   2.042       .  S
O1037      C1047   1.281       .  A
O1038     Cu1045   2.023       .  S
O1038      C1048   1.280       .  A
O1039     Cu1045   2.004       .  S
O1039      C1049   1.276       .  A
O1040     Cu1045   1.995       .  S
O1040      C1050   1.275       .  A
O1041     Cu1046   2.033       .  S
O1041      C1050   1.281       .  A
O1042     Cu1046   2.021       .  S
O1042      C1049   1.279       .  A
O1043     Cu1046   1.991       .  S
O1043      C1048   1.274       .  A
O1044     Cu1046   1.985       .  S
O1044      C1047   1.274       .  A
Cu1045    Cu1046   2.376       .  S
C1047      C1819   1.470       .  S
C1048      C3400   1.466       .  S
C1049      C1768   1.467       .  S
C1050      C1752   1.472       .  S
O1051     Cu1059   1.980       .  S
O1051      C1061   1.274       .  A
O1052     Cu1059   1.986       .  S
O1052      C1062   1.274       .  A
O1053     Cu1059   2.019       .  S
O1053      C1063   1.280       .  A
O1054     Cu1059   2.034       .  S
O1054      C1064   1.281       .  A
O1055     Cu1060   1.991       .  S
O1055      C1064   1.275       .  A
O1056     Cu1060   1.992       .  S
O1056      C1063   1.274       .  A
O1057     Cu1060   2.028       .  S
O1057      C1062   1.280       .  A
O1058     Cu1060   2.044       .  S
O1058      C1061   1.281       .  A
Cu1059    Cu1060   2.376       .  S
C1061      C1771   1.470       .  S
C1062      C3739   1.467       .  S
C1063      C1736   1.464       .  S
C1064      C1944   1.472       .  S
O1065     Cu1073   2.009       .  S
O1065      C1075   1.278       .  A
O1066     Cu1073   2.033       .  S
O1066      C1076   1.280       .  A
O1067     Cu1073   2.005       .  S
O1067      C1077   1.277       .  A
O1068     Cu1073   2.014       .  S
O1068      C1078   1.277       .  A
O1069     Cu1074   2.026       .  S
O1069      C1078   1.280       .  A
O1070     Cu1074   2.039       .  S
O1070      C1077   1.281       .  A
O1071     Cu1074   1.978       .  S
O1071      C1076   1.273       .  A
O1072     Cu1074   1.987       .  S
O1072      C1075   1.274       .  A
Cu1073    Cu1074   2.376       .  S
C1075      C4360   1.460       .  S
C1076      C1739   1.460       .  S
C1077      C2235   1.478       .  S
C1078      C1720   1.473       .  S
O1079     Cu1087   1.983       .  S
O1079      C1089   1.274       .  A
O1080     Cu1087   1.986       .  S
O1080      C1090   1.274       .  A
O1081     Cu1087   2.018       .  S
O1081      C1091   1.279       .  A
O1082     Cu1087   2.035       .  S
O1082      C1092   1.281       .  A
O1083     Cu1088   2.008       .  S
O1083      C1092   1.277       .  A
O1084     Cu1088   2.008       .  S
O1084      C1091   1.276       .  A
O1085     Cu1088   2.031       .  S
O1085      C1090   1.280       .  A
O1086     Cu1088   2.049       .  S
O1086      C1089   1.282       .  A
Cu1087    Cu1088   2.374       .  S
C1089      C1723   1.476       .  S
C1090      C2731   1.468       .  S
C1091      C1784   1.468       .  S
C1092      C1704   1.479       .  S
O1093     Cu1101   1.981       .  S
O1093      C1103   1.274       .  A
O1094     Cu1101   1.992       .  S
O1094      C1104   1.275       .  A
O1095     Cu1101   2.024       .  S
O1095      C1105   1.280       .  A
O1096     Cu1101   2.039       .  S
O1096      C1106   1.281       .  A
O1097     Cu1102   2.007       .  S
O1097      C1106   1.277       .  A
O1098     Cu1102   2.013       .  S
O1098      C1105   1.276       .  A
O1099     Cu1102   2.021       .  S
O1099      C1104   1.279       .  A
O1100     Cu1102   2.037       .  S
O1100      C1103   1.280       .  A
Cu1101    Cu1102   2.374       .  S
C1103      C1675   1.468       .  S
C1104      C3051   1.467       .  S
C1105      C1691   1.472       .  S
C1106      C1707   1.480       .  S
O1107     Cu1115   2.033       .  S
O1107      C1117   1.280       .  A
O1108     Cu1115   2.016       .  S
O1108      C1118   1.279       .  A
O1109     Cu1115   1.989       .  S
O1109      C1119   1.274       .  A
O1110     Cu1115   1.983       .  S
O1110      C1120   1.273       .  A
O1111     Cu1116   2.033       .  S
O1111      C1120   1.280       .  A
O1112     Cu1116   2.014       .  S
O1112      C1119   1.279       .  A
O1113     Cu1116   2.015       .  S
O1113      C1118   1.277       .  A
O1114     Cu1116   2.011       .  S
O1114      C1117   1.278       .  A
Cu1115    Cu1116   2.376       .  S
C1117      C2075   1.480       .  S
C1118      C1672   1.469       .  S
C1119      C3691   1.462       .  S
C1120      C1656   1.461       .  S
O1121     Cu1129   1.991       .  S
O1121      C1131   1.274       .  A
O1122     Cu1129   1.988       .  S
O1122      C1132   1.274       .  A
O1123     Cu1129   2.043       .  S
O1123      C1133   1.282       .  A
O1124     Cu1129   2.046       .  S
O1124      C1134   1.282       .  A
O1125     Cu1130   2.000       .  S
O1125      C1134   1.276       .  A
O1126     Cu1130   1.986       .  S
O1126      C1133   1.274       .  A
O1127     Cu1130   2.025       .  S
O1127      C1132   1.279       .  A
O1128     Cu1130   2.040       .  S
O1128      C1131   1.282       .  A
Cu1129    Cu1130   2.373       .  S
C1131      C1992   1.473       .  S
C1132      C1643   1.463       .  S
C1133      C2648   1.474       .  S
C1134      C1627   1.479       .  S
O1135     Cu1143   2.032       .  S
O1135      C1145   1.281       .  A
O1136     Cu1143   2.023       .  S
O1136      C1146   1.279       .  A
O1137     Cu1143   1.994       .  S
O1137      C1147   1.276       .  A
O1138     Cu1143   1.987       .  S
O1138      C1148   1.274       .  A
O1139     Cu1144   2.045       .  S
O1139      C1148   1.282       .  A
O1140     Cu1144   2.030       .  S
O1140      C1147   1.280       .  A
O1141     Cu1144   2.016       .  S
O1141      C1146   1.278       .  A
O1142     Cu1144   2.007       .  S
O1142      C1145   1.276       .  A
Cu1143    Cu1144   2.374       .  S
C1145      C1611   1.475       .  S
C1146      C1624   1.475       .  S
C1147      C3259   1.471       .  S
C1148      C1688   1.472       .  S
O1149     Cu1157   1.995       .  S
O1149      C1159   1.276       .  A
O1150     Cu1157   1.993       .  S
O1150      C1160   1.275       .  A
O1151     Cu1157   2.040       .  S
O1151      C1161   1.281       .  A
O1152     Cu1157   2.017       .  S
O1152      C1162   1.280       .  A
O1153     Cu1158   2.002       .  S
O1153      C1162   1.275       .  A
O1154     Cu1158   2.001       .  S
O1154      C1161   1.277       .  A
O1155     Cu1158   2.048       .  S
O1155      C1160   1.282       .  A
O1156     Cu1158   2.037       .  S
O1156      C1159   1.281       .  A
Cu1157    Cu1158   2.373       .  S
C1159      C4315   1.474       .  S
C1160      C1592   1.476       .  S
C1161      C1576   1.478       .  S
C1162      C1659   1.468       .  S
O1163     Cu1171   2.028       .  S
O1163      C1173   1.280       .  A
O1164     Cu1171   2.034       .  S
O1164      C1174   1.281       .  A
O1165     Cu1171   2.010       .  S
O1165      C1175   1.277       .  A
O1166     Cu1171   1.996       .  S
O1166      C1176   1.275       .  A
O1167     Cu1172   2.016       .  S
O1167      C1176   1.278       .  A
O1168     Cu1172   2.002       .  S
O1168      C1175   1.277       .  A
O1169     Cu1172   2.007       .  S
O1169      C1174   1.276       .  A
O1170     Cu1172   2.011       .  S
O1170      C1173   1.277       .  A
Cu1171    Cu1172   2.373       .  S
C1173      C1755   1.475       .  S
C1174      C1595   1.475       .  S
C1175      C3947   1.465       .  S
C1176      C1640   1.460       .  S
O1177     Cu1185   1.993       .  S
O1177      C1187   1.275       .  A
O1178     Cu1185   1.984       .  S
O1178      C1188   1.274       .  A
O1179     Cu1185   2.028       .  S
O1179      C1189   1.280       .  A
O1180     Cu1185   2.017       .  S
O1180      C1190   1.279       .  A
O1181     Cu1186   2.006       .  S
O1181      C1190   1.276       .  A
O1182     Cu1186   2.002       .  S
O1182      C1189   1.276       .  A
O1183     Cu1186   2.034       .  S
O1183      C1188   1.280       .  A
O1184     Cu1186   2.021       .  S
O1184      C1187   1.279       .  A
Cu1185    Cu1186   2.376       .  S
C1187      C3627   1.467       .  S
C1188      C1547   1.466       .  S
C1189      C1832   1.473       .  S
C1190      C1563   1.469       .  S
O1191     Cu1199   2.030       .  S
O1191      C1201   1.280       .  A
O1192     Cu1199   2.043       .  S
O1192      C1202   1.282       .  A
O1193     Cu1199   1.989       .  S
O1193      C1203   1.274       .  A
O1194     Cu1199   1.983       .  S
O1194      C1204   1.274       .  A
O1195     Cu1200   2.037       .  S
O1195      C1204   1.281       .  A
O1196     Cu1200   2.032       .  S
O1196      C1203   1.280       .  A
O1197     Cu1200   1.991       .  S
O1197      C1202   1.274       .  A
O1198     Cu1200   1.999       .  S
O1198      C1201   1.276       .  A
Cu1199    Cu1200   2.374       .  S
C1201      C1528   1.470       .  S
C1202      C1608   1.474       .  S
C1203      C1560   1.465       .  S
C1204      C3451   1.471       .  S
O1205     Cu1213   2.041       .  S
O1205      C1215   1.281       .  A
O1206     Cu1213   2.025       .  S
O1206      C1216   1.280       .  A
O1207     Cu1213   2.012       .  S
O1207      C1217   1.276       .  A
O1208     Cu1213   2.011       .  S
O1208      C1218   1.277       .  A
O1209     Cu1214   2.035       .  S
O1209      C1218   1.281       .  A
O1210     Cu1214   2.018       .  S
O1210      C1217   1.279       .  A
O1211     Cu1214   1.992       .  S
O1211      C1216   1.275       .  A
O1212     Cu1214   1.979       .  S
O1212      C1215   1.274       .  A
Cu1213    Cu1214   2.375       .  S
C1215      C1512   1.470       .  S
C1216      C2987   1.468       .  S
C1217      C1544   1.469       .  S
C1218      C1499   1.479       .  S
O1219     Cu1227   1.995       .  S
O1219      C1229   1.275       .  A
O1220     Cu1227   1.991       .  S
O1220      C1230   1.274       .  A
O1221     Cu1227   2.030       .  S
O1221      C1231   1.280       .  A
O1222     Cu1227   2.027       .  S
O1222      C1232   1.280       .  A
O1223     Cu1228   1.999       .  S
O1223      C1232   1.275       .  A
O1224     Cu1228   2.010       .  S
O1224      C1231   1.277       .  A
O1225     Cu1228   2.034       .  S
O1225      C1230   1.281       .  A
O1226     Cu1228   2.016       .  S
O1226      C1229   1.279       .  A
Cu1227    Cu1228   2.371       .  S
C1229      C2875   1.464       .  S
C1230      C1480   1.468       .  S
C1231      C1579   1.477       .  S
C1232      C1515   1.467       .  S
O1233     Cu1241   2.046       .  S
O1233      C1243   1.282       .  A
O1234     Cu1241   2.043       .  S
O1234      C1244   1.281       .  A
O1235     Cu1241   1.997       .  S
O1235      C1245   1.275       .  A
O1236     Cu1241   2.001       .  S
O1236      C1246   1.275       .  A
O1237     Cu1242   2.025       .  S
O1237      C1246   1.279       .  A
O1238     Cu1242   2.036       .  S
O1238      C1245   1.281       .  A
O1239     Cu1242   1.994       .  S
O1239      C1244   1.276       .  A
O1240     Cu1242   1.987       .  S
O1240      C1243   1.274       .  A
Cu1241    Cu1242   2.374       .  S
C1243      C2619   1.474       .  S
C1244      C1464   1.477       .  S
C1245      C1899   1.473       .  S
C1246      C1483   1.466       .  S
O1247     Cu1255   2.016       .  S
O1247      C1257   1.277       .  A
O1248     Cu1255   2.010       .  S
O1248      C1258   1.276       .  A
O1249     Cu1255   2.011       .  S
O1249      C1259   1.278       .  A
O1250     Cu1255   2.032       .  S
O1250      C1260   1.280       .  A
O1251     Cu1256   1.987       .  S
O1251      C1260   1.273       .  A
O1252     Cu1256   1.999       .  S
O1252      C1259   1.276       .  A
O1253     Cu1256   2.030       .  S
O1253      C1258   1.280       .  A
O1254     Cu1256   2.026       .  S
O1254      C1257   1.280       .  A
Cu1255    Cu1256   2.374       .  S
C1257      C1451   1.476       .  S
C1258      C1467   1.474       .  S
C1259      C3995   1.464       .  S
C1260      C1531   1.463       .  S
O1261     Cu1269   2.038       .  S
O1261      C1271   1.282       .  A
O1262     Cu1269   2.031       .  S
O1262      C1272   1.280       .  A
O1263     Cu1269   2.006       .  S
O1263      C1273   1.276       .  A
O1264     Cu1269   2.016       .  S
O1264      C1274   1.278       .  A
O1265     Cu1270   2.011       .  S
O1265      C1274   1.278       .  A
O1266     Cu1270   2.024       .  S
O1266      C1273   1.279       .  A
O1267     Cu1270   2.008       .  S
O1267      C1272   1.277       .  A
O1268     Cu1270   2.000       .  S
O1268      C1271   1.275       .  A
Cu1269    Cu1270   2.373       .  S
C1271      C1432   1.475       .  S
C1272      C2363   1.476       .  S
C1273      C1416   1.468       .  S
C1274      C2840   1.470       .  S
O1275     Cu1283   2.026       .  S
O1275      C1285   1.279       .  A
O1276     Cu1283   2.038       .  S
O1276      C1286   1.282       .  A
O1277     Cu1283   1.985       .  S
O1277      C1287   1.273       .  A
O1278     Cu1283   1.988       .  S
O1278      C1288   1.275       .  A
O1279     Cu1284   2.027       .  S
O1279      C1288   1.280       .  A
O1280     Cu1284   2.036       .  S
O1280      C1287   1.281       .  A
O1281     Cu1284   2.013       .  S
O1281      C1286   1.277       .  A
O1282     Cu1284   2.012       .  S
O1282      C1285   1.278       .  A
Cu1283    Cu1284   2.374       .  S
C1285      C1403   1.475       .  S
C1286      C1496   1.480       .  S
C1287      C1387   1.465       .  S
C1288      C3307   1.467       .  S
O1289     Cu1297   1.995       .  S
O1289      C1299   1.275       .  A
O1290     Cu1297   1.995       .  S
O1290      C1300   1.275       .  A
O1291     Cu1297   2.033       .  S
O1291      C1301   1.281       .  A
O1292     Cu1297   2.013       .  S
O1292      C1302   1.279       .  A
O1293     Cu1298   2.003       .  S
O1293      C1302   1.276       .  A
O1294     Cu1298   2.007       .  S
O1294      C1301   1.276       .  A
O1295     Cu1298   2.040       .  S
O1295      C1300   1.281       .  A
O1296     Cu1298   2.022       .  S
O1296      C1299   1.279       .  A
Cu1297    Cu1298   2.375       .  S
C1299      C2584   1.468       .  S
C1300      C1435   1.472       .  S
C1301      C2107   1.477       .  S
C1302      C1384   1.466       .  S
O1303     Cu1311   2.002       .  S
O1303      C1313   1.276       .  A
O1304     Cu1311   1.997       .  S
O1304      C1314   1.275       .  A
O1305     Cu1311   2.038       .  S
O1305      C1315   1.280       .  A
O1306     Cu1311   2.037       .  S
O1306      C1316   1.282       .  A
O1307     Cu1312   1.976       .  S
O1307      C1316   1.273       .  A
O1308     Cu1312   1.989       .  S
O1308      C1315   1.275       .  A
O1309     Cu1312   2.040       .  S
O1309      C1314   1.282       .  A
O1310     Cu1312   2.033       .  S
O1310      C1313   1.280       .  A
Cu1311    Cu1312   2.373       .  S
C1313      C1419   1.472       .  S
C1314      C1448   1.476       .  S
C1315      C1371   1.471       .  S
C1316      C4171   1.468       .  S
O1317     Cu1325   2.000       .  S
O1317      C1327   1.275       .  A
O1318     Cu1325   2.008       .  S
O1318      C1328   1.276       .  A
O1319     Cu1325   2.031       .  S
O1319      C1329   1.280       .  A
O1320     Cu1325   2.048       .  S
O1320      C1330   1.282       .  A
O1321     Cu1326   1.982       .  S
O1321      C1330   1.273       .  A
O1322     Cu1326   1.988       .  S
O1322      C1329   1.275       .  A
O1323     Cu1326   2.016       .  S
O1323      C1328   1.279       .  A
O1324     Cu1326   2.022       .  S
O1324      C1327   1.280       .  A
Cu1325    Cu1326   2.376       .  S
C1327      C2331   1.469       .  S
C1328      C1352   1.466       .  S
C1329      C3499   1.469       .  S
C1330      C1400   1.469       .  S
O1331     Cu1339   2.046       .  S
O1331      C1341   1.282       .  A
O1332     Cu1339   2.029       .  S
O1332      C1342   1.280       .  A
O1333     Cu1339   2.001       .  S
O1333      C1343   1.275       .  A
O1334     Cu1339   1.986       .  S
O1334      C1344   1.274       .  A
O1335     Cu1340   2.028       .  S
O1335      C1344   1.280       .  A
O1336     Cu1340   2.022       .  S
O1336      C1343   1.279       .  A
O1337     Cu1340   1.993       .  S
O1337      C1342   1.275       .  A
O1338     Cu1340   1.984       .  S
O1338      C1341   1.273       .  A
Cu1339    Cu1340   2.376       .  S
C1341      C1355   1.470       .  S
C1342      C3643   1.469       .  S
C1343      C1368   1.468       .  S
C1344      C2008   1.466       .  S
C1345      C1350   1.380       .  A
C1345      C1346   1.409       .  A
C1345      O1351   1.322       .  A
C1346      C1347   1.407       .  A
C1346      H1357   1.081       .  S
C1347      C1356   1.371       .  A
C1347      C1348   1.380       .  A
C1348      C1349   1.401       .  A
C1348      O1354   1.314       .  A
C1349      C1350   1.398       .  A
C1349      H1358   1.081       .  S
C1350      C1353   1.360       .  A
O1351      C1352   1.333       .  A
C1352      C1353   1.387       .  A
C1353      H1359   1.082       .  S
O1354      C1355   1.329       .  A
C1355      C1356   1.394       .  A
C1356      H1360   1.082       .  S
C1361      C1366   1.381       .  A
C1361      C1362   1.399       .  A
C1361      O1367   1.319       .  A
C1362      C1363   1.400       .  A
C1362      H1373   1.083       .  S
C1363      C1372   1.354       .  A
C1363      C1364   1.381       .  A
C1364      C1365   1.407       .  A
C1364      O1370   1.326       .  A
C1365      C1366   1.408       .  A
C1365      H1374   1.083       .  S
C1366      C1369   1.363       .  A
O1367      C1368   1.328       .  A
C1368      C1369   1.393       .  A
C1369      H1375   1.083       .  S
O1370      C1371   1.333       .  A
C1371      C1372   1.389       .  A
C1372      H1376   1.083       .  S
C1377      C1382   1.380       .  A
C1377      C1378   1.406       .  A
C1377      O1383   1.319       .  A
C1378      C1379   1.404       .  A
C1378      H1389   1.082       .  S
C1379      C1388   1.368       .  A
C1379      C1380   1.381       .  A
C1380      C1381   1.401       .  A
C1380      O1386   1.314       .  A
C1381      C1382   1.399       .  A
C1381      H1390   1.083       .  S
C1382      C1385   1.361       .  A
O1383      C1384   1.331       .  A
C1384      C1385   1.389       .  A
C1385      H1391   1.083       .  S
O1386      C1387   1.330       .  A
C1387      C1388   1.391       .  A
C1388      H1392   1.082       .  S
C1393      C1398   1.381       .  A
C1393      C1394   1.407       .  A
C1393      O1399   1.326       .  A
C1394      C1395   1.408       .  A
C1394      H1405   1.081       .  S
C1395      C1404   1.363       .  A
C1395      C1396   1.381       .  A
C1396      C1397   1.402       .  A
C1396      O1402   1.321       .  A
C1397      C1398   1.403       .  A
C1397      H1406   1.081       .  S
C1398      C1401   1.357       .  A
O1399      C1400   1.332       .  A
C1400      C1401   1.389       .  A
C1401      H1407   1.082       .  S
O1402      C1403   1.331       .  A
C1403      C1404   1.393       .  A
C1404      H1408   1.082       .  S
C1409      C1414   1.381       .  A
C1409      C1410   1.404       .  A
C1409      O1415   1.321       .  A
C1410      C1411   1.404       .  A
C1410      H1421   1.081       .  S
C1411      C1420   1.361       .  A
C1411      C1412   1.380       .  A
C1412      C1413   1.405       .  A
C1412      O1418   1.322       .  A
C1413      C1414   1.405       .  A
C1413      H1422   1.081       .  S
C1414      C1417   1.363       .  A
O1415      C1416   1.331       .  A
C1416      C1417   1.391       .  A
C1417      H1423   1.082       .  S
O1418      C1419   1.331       .  A
C1419      C1420   1.391       .  A
C1420      H1424   1.082       .  S
C1425      C1430   1.380       .  A
C1425      C1426   1.407       .  A
C1425      O1431   1.319       .  A
C1426      C1427   1.404       .  A
C1426      H1437   1.081       .  S
C1427      C1436   1.369       .  A
C1427      C1428   1.380       .  A
C1428      C1429   1.406       .  A
C1428      O1434   1.318       .  A
C1429      C1430   1.404       .  A
C1429      H1438   1.082       .  S
C1430      C1433   1.368       .  A
O1431      C1432   1.332       .  A
C1432      C1433   1.393       .  A
C1433      H1439   1.082       .  S
O1434      C1435   1.332       .  A
C1435      C1436   1.391       .  A
C1436      H1440   1.082       .  S
C1441      C1446   1.380       .  A
C1441      C1442   1.405       .  A
C1441      O1447   1.318       .  A
C1442      C1443   1.403       .  A
C1442      H1453   1.082       .  S
C1443      C1452   1.364       .  A
C1443      C1444   1.380       .  A
C1444      C1445   1.408       .  A
C1444      O1450   1.321       .  A
C1445      C1446   1.406       .  A
C1445      H1454   1.082       .  S
C1446      C1449   1.368       .  A
O1447      C1448   1.332       .  A
C1448      C1449   1.393       .  A
C1449      H1455   1.082       .  S
O1450      C1451   1.333       .  A
C1451      C1452   1.391       .  A
C1452      H1456   1.082       .  S
C1457      C1462   1.380       .  A
C1457      C1458   1.408       .  A
C1457      O1463   1.326       .  A
C1458      C1459   1.409       .  A
C1458      H1469   1.082       .  S
C1459      C1468   1.366       .  A
C1459      C1460   1.381       .  A
C1460      C1461   1.401       .  A
C1460      O1466   1.320       .  A
C1461      C1462   1.402       .  A
C1461      H1470   1.082       .  S
C1462      C1465   1.357       .  A
O1463      C1464   1.334       .  A
C1464      C1465   1.391       .  A
C1465      H1471   1.083       .  S
O1466      C1467   1.330       .  A
C1467      C1468   1.394       .  A
C1468      H1472   1.082       .  S
C1473      C1478   1.380       .  A
C1473      C1474   1.403       .  A
C1473      O1479   1.318       .  A
C1474      C1475   1.402       .  A
C1474      H1485   1.083       .  S
C1475      C1484   1.361       .  A
C1475      C1476   1.381       .  A
C1476      C1477   1.405       .  A
C1476      O1482   1.321       .  A
C1477      C1478   1.405       .  A
C1477      H1486   1.083       .  S
C1478      C1481   1.364       .  A
O1479      C1480   1.331       .  A
C1480      C1481   1.391       .  A
C1481      H1487   1.083       .  S
O1482      C1483   1.331       .  A
C1483      C1484   1.389       .  A
C1484      H1488   1.083       .  S
C1489      C1494   1.379       .  A
C1489      C1490   1.408       .  A
C1489      O1495   1.322       .  A
C1490      C1491   1.407       .  A
C1490      H1501   1.082       .  S
C1491      C1500   1.368       .  A
C1491      C1492   1.380       .  A
C1492      C1493   1.406       .  A
C1492      O1498   1.320       .  A
C1493      C1494   1.405       .  A
C1493      H1502   1.082       .  S
C1494      C1497   1.367   1_545  A
O1495      C1496   1.334   1_545  A
C1496      C1497   1.393       .  A
C1497      H1503   1.082       .  S
O1498      C1499   1.333       .  A
C1499      C1500   1.394       .  A
C1500      H1504   1.082       .  S
C1505      C1510   1.381       .  A
C1505      C1506   1.406       .  A
C1505      O1511   1.324       .  A
C1506      C1507   1.407       .  A
C1506      H1517   1.082       .  S
C1507      C1516   1.363       .  A
C1507      C1508   1.381       .  A
C1508      C1509   1.399       .  A
C1508      O1514   1.318       .  A
C1509      C1510   1.400       .  A
C1509      H1518   1.081       .  S
C1510      C1513   1.355       .  A
O1511      C1512   1.332       .  A
C1512      C1513   1.390       .  A
C1513      H1519   1.083       .  S
O1514      C1515   1.328       .  A
C1515      C1516   1.393       .  A
C1516      H1520   1.082       .  S
C1521      C1526   1.381       .  A
C1521      C1522   1.404       .  A
C1521      O1527   1.322       .  A
C1522      C1523   1.404       .  A
C1522      H1533   1.083       .  S
C1523      C1532   1.362       .  A
C1523      C1524   1.380       .  A
C1524      C1525   1.403       .  A
C1524      O1530   1.319       .  A
C1525      C1526   1.403       .  A
C1525      H1534   1.083       .  S
C1526      C1529   1.360       .  A
O1527      C1528   1.331       .  A
C1528      C1529   1.391       .  A
C1529      H1535   1.083       .  S
O1530      C1531   1.331       .  A
C1531      C1532   1.390       .  A
C1532      H1536   1.083       .  S
C1537      C1542   1.380       .  A
C1537      C1538   1.409       .  A
C1537      O1543   1.322       .  A
C1538      C1539   1.407       .  A
C1538      H1549   1.083       .  S
C1539      C1548   1.370       .  A
C1539      C1540   1.380       .  A
C1540      C1541   1.400       .  A
C1540      O1546   1.313       .  A
C1541      C1542   1.398       .  A
C1541      H1550   1.083       .  S
C1542      C1545   1.359       .  A
O1543      C1544   1.333       .  A
C1544      C1545   1.388       .  A
C1545      H1551   1.083       .  S
O1546      C1547   1.328       .  A
C1547      C1548   1.393       .  A
C1548      H1552   1.082       .  S
C1553      C1558   1.381       .  A
C1553      C1554   1.402       .  A
C1553      O1559   1.315       .  A
C1554      C1555   1.400       .  A
C1554      H1565   1.083       .  S
C1555      C1564   1.361       .  A
C1555      C1556   1.380       .  A
C1556      C1557   1.406       .  A
C1556      O1562   1.319       .  A
C1557      C1558   1.404       .  A
C1557      H1566   1.082       .  S
C1558      C1561   1.367       .  A
O1559      C1560   1.329       .  A
C1560      C1561   1.390       .  A
C1561      H1567   1.082       .  S
O1562      C1563   1.332       .  A
C1563      C1564   1.389       .  A
C1564      H1568   1.083       .  S
C1569      C1574   1.380       .  A
C1569      C1570   1.408       .  A
C1569      O1575   1.326       .  A
C1570      C1571   1.408       .  A
C1570      H1581   1.082       .  S
C1571      C1580   1.364   1_455  A
C1571      C1572   1.380   1_455  A
C1572      C1573   1.402   1_655  A
C1572      O1578   1.321       .  A
C1573      C1574   1.403       .  A
C1573      H1582   1.082   1_455  S
C1574      C1577   1.358       .  A
O1575      C1576   1.334       .  A
C1576      C1577   1.391       .  A
C1577      H1583   1.082       .  S
O1578      C1579   1.331       .  A
C1579      C1580   1.395       .  A
C1580      H1584   1.082       .  S
C1585      C1590   1.380       .  A
C1585      C1586   1.404       .  A
C1585      O1591   1.317       .  A
C1586      C1587   1.402       .  A
C1586      H1597   1.081       .  S
C1587      C1596   1.365       .  A
C1587      C1588   1.379       .  A
C1588      C1589   1.410       .  A
C1588      O1594   1.322       .  A
C1589      C1590   1.408       .  A
C1589      H1598   1.081       .  S
C1590      C1593   1.372       .  A
O1591      C1592   1.331       .  A
C1592      C1593   1.394       .  A
C1593      H1599   1.082       .  S
O1594      C1595   1.334       .  A
C1595      C1596   1.390       .  A
C1596      H1600   1.082       .  S
C1601      C1606   1.380       .  A
C1601      C1602   1.405       .  A
C1601      O1607   1.317       .  A
C1602      C1603   1.403       .  A
C1602      H1613   1.082       .  S
C1603      C1612   1.366       .  A
C1603      C1604   1.380       .  A
C1604      C1605   1.407       .  A
C1604      O1610   1.319       .  A
C1605      C1606   1.405       .  A
C1605      H1614   1.082       .  S
C1606      C1609   1.368       .  A
O1607      C1608   1.332       .  A
C1608      C1609   1.392       .  A
C1609      H1615   1.082       .  S
O1610      C1611   1.333       .  A
C1611      C1612   1.392       .  A
C1612      H1616   1.082       .  S
C1617      C1622   1.381       .  A
C1617      C1618   1.402       .  A
C1617      O1623   1.320       .  A
C1618      C1619   1.403       .  A
C1618      H1629   1.083       .  S
C1619      C1628   1.358       .  A
C1619      C1620   1.380       .  A
C1620      C1621   1.409       .  A
C1620      O1626   1.327       .  A
C1621      C1622   1.410       .  A
C1621      H1630   1.082       .  S
C1622      C1625   1.367       .  A
O1623      C1624   1.330       .  A
C1624      C1625   1.394       .  A
C1625      H1631   1.083       .  S
O1626      C1627   1.334       .  A
C1627      C1628   1.391       .  A
C1628      H1632   1.083       .  S
C1633      C1638   1.381       .  A
C1633      C1634   1.400       .  A
C1633      O1639   1.317       .  A
C1634      C1635   1.400       .  A
C1634      H1645   1.082       .  S
C1635      C1644   1.356       .  A
C1635      C1636   1.381       .  A
C1636      C1637   1.403       .  A
C1636      O1642   1.321       .  A
C1637      C1638   1.404       .  A
C1637      H1646   1.082       .  S
C1638      C1641   1.361       .  A
O1639      C1640   1.329       .  A
C1640      C1641   1.390       .  A
C1641      H1647   1.082       .  S
O1642      C1643   1.330       .  A
C1643      C1644   1.388       .  A
C1644      H1648   1.082       .  S
C1649      C1654   1.381       .  A
C1649      C1650   1.399       .  A
C1649      O1655   1.313       .  A
C1650      C1651   1.397       .  A
C1650      H1661   1.083       .  S
C1651      C1660   1.359       .  A
C1651      C1652   1.380       .  A
C1652      C1653   1.407       .  A
C1652      O1658   1.320       .  A
C1653      C1654   1.406       .  A
C1653      H1662   1.083       .  S
C1654      C1657   1.369       .  A
O1655      C1656   1.328       .  A
C1656      C1657   1.391       .  A
C1657      H1663   1.082       .  S
O1658      C1659   1.333       .  A
C1659      C1660   1.388       .  A
C1660      H1664   1.083       .  S
C1665      C1670   1.381       .  A
C1665      C1666   1.398       .  A
C1665      O1671   1.316       .  A
C1666      C1667   1.398       .  A
C1666      H1677   1.083       .  S
C1667      C1676   1.353       .  A
C1667      C1668   1.381       .  A
C1668      C1669   1.408       .  A
C1668      O1674   1.325       .  A
C1669      C1670   1.409       .  A
C1669      H1678   1.082       .  S
C1670      C1673   1.367       .  A
O1671      C1672   1.328       .  A
C1672      C1673   1.394       .  A
C1673      H1679   1.082       .  S
O1674      C1675   1.333       .  A
C1675      C1676   1.388       .  A
C1676      H1680   1.083       .  S
C1681      C1686   1.380       .  A
C1681      C1682   1.402       .  A
C1681      O1687   1.315       .  A
C1682      C1683   1.400       .  A
C1682      H1693   1.081       .  S
C1683      C1692   1.362       .  A
C1683      C1684   1.380       .  A
C1684      C1685   1.410       .  A
C1684      O1690   1.322       .  A
C1685      C1686   1.408       .  A
C1685      H1694   1.082       .  S
C1686      C1689   1.371       .  A
O1687      C1688   1.330       .  A
C1688      C1689   1.394       .  A
C1689      H1695   1.082       .  S
O1690      C1691   1.334       .  A
C1691      C1692   1.389       .  A
C1692      H1696   1.082       .  S
C1697      C1702   1.380   1_556  A
C1697      C1698   1.405   1_556  A
C1697      O1703   1.323       .  A
C1698      C1699   1.406       .  A
C1698      H1709   1.081   1_554  S
C1699      C1708   1.362       .  A
C1699      C1700   1.380       .  A
C1700      C1701   1.407       .  A
C1700      O1706   1.325       .  A
C1701      C1702   1.407       .  A
C1701      H1710   1.081       .  S
C1702      C1705   1.363   1_554  A
O1703      C1704   1.332       .  A
C1704      C1705   1.394       .  A
C1705      H1711   1.082       .  S
O1706      C1707   1.333       .  A
C1707      C1708   1.393       .  A
C1708      H1712   1.082       .  S
C1713      C1718   1.381       .  A
C1713      C1714   1.400       .  A
C1713      O1719   1.319       .  A
C1714      C1715   1.401       .  A
C1714      H1725   1.082       .  S
C1715      C1724   1.356       .  A
C1715      C1716   1.380       .  A
C1716      C1717   1.409       .  A
C1716      O1722   1.327       .  A
C1717      C1718   1.410       .  A
C1717      H1726   1.082       .  S
C1718      C1721   1.367       .  A
O1719      C1720   1.329       .  A
C1720      C1721   1.394       .  A
C1721      H1727   1.082       .  S
O1722      C1723   1.334       .  A
C1723      C1724   1.391       .  A
C1724      H1728   1.083       .  S
C1729      C1734   1.380       .  A
C1729      C1730   1.407       .  A
C1729      O1735   1.318       .  A
C1730      C1731   1.404       .  A
C1730      H1741   1.083       .  S
C1731      C1740   1.369       .  A
C1731      C1732   1.381       .  A
C1732      C1733   1.399       .  A
C1732      O1738   1.311       .  A
C1733      C1734   1.396       .  A
C1733      H1742   1.083       .  S
C1734      C1737   1.359       .  A
O1735      C1736   1.332       .  A
C1736      C1737   1.387       .  A
C1737      H1743   1.083       .  S
O1738      C1739   1.327       .  A
C1739      C1740   1.391       .  A
C1740      H1744   1.082       .  S
C1745      C1750   1.380       .  A
C1745      C1746   1.405       .  A
C1745      O1751   1.317       .  A
C1746      C1747   1.403       .  A
C1746      H1757   1.081       .  S
C1747      C1756   1.365       .  A
C1747      C1748   1.380       .  A
C1748      C1749   1.406       .  A
C1748      O1754   1.319       .  A
C1749      C1750   1.404       .  A
C1749      H1758   1.081       .  S
C1750      C1753   1.367       .  A
O1751      C1752   1.331       .  A
C1752      C1753   1.392       .  A
C1753      H1759   1.082       .  S
O1754      C1755   1.332       .  A
C1755      C1756   1.392       .  A
C1756      H1760   1.082       .  S
C1761      C1766   1.381       .  A
C1761      C1762   1.397       .  A
C1761      O1767   1.317       .  A
C1762      C1763   1.398       .  A
C1762      H1773   1.082       .  S
C1763      C1772   1.352       .  A
C1763      C1764   1.381       .  A
C1764      C1765   1.408       .  A
C1764      O1770   1.327       .  A
C1765      C1766   1.409       .  A
C1765      H1774   1.082       .  S
C1766      C1769   1.365       .  A
O1767      C1768   1.327       .  A
C1768      C1769   1.394       .  A
C1769      H1775   1.082       .  S
O1770      C1771   1.333       .  A
C1771      C1772   1.388       .  A
C1772      H1776   1.083       .  S
C1777      C1782   1.380       .  A
C1777      C1778   1.407       .  A
C1777      O1783   1.320       .  A
C1778      C1779   1.405       .  A
C1778      H1789   1.081       .  S
C1779      C1788   1.368       .  A
C1779      C1780   1.381       .  A
C1780      C1781   1.401       .  A
C1780      O1786   1.313       .  A
C1781      C1782   1.399       .  A
C1781      H1790   1.081       .  S
C1782      C1785   1.360       .  A
O1783      C1784   1.332       .  A
C1784      C1785   1.389       .  A
C1785      H1791   1.082       .  S
O1786      C1787   1.329       .  A
C1787      C1788   1.390       .  A
C1788      H1792   1.082       .  S
C1793      C1798   1.380       .  A
C1793      C1794   1.410       .  A
C1793      O1799   1.327       .  A
C1794      C1795   1.410       .  A
C1794      H1805   1.082       .  S
C1795      C1804   1.368       .  A
C1795      C1796   1.380       .  A
C1796      C1797   1.402       .  A
C1796      O1802   1.320       .  A
C1797      C1798   1.402       .  A
C1797      H1806   1.082       .  S
C1798      C1801   1.358       .  A
O1799      C1800   1.334       .  A
C1800      C1801   1.391       .  A
C1801      H1807   1.083       .  S
O1802      C1803   1.330       .  A
C1803      C1804   1.395       .  A
C1804      H1808   1.082       .  S
C1809      C1814   1.381       .  A
C1809      C1810   1.400       .  A
C1809      O1815   1.319       .  A
C1810      C1811   1.401       .  A
C1810      H1821   1.081       .  S
C1811      C1820   1.355       .  A
C1811      C1812   1.381       .  A
C1812      C1813   1.407       .  A
C1812      O1818   1.325       .  A
C1813      C1814   1.408       .  A
C1813      H1822   1.081       .  S
C1814      C1817   1.364       .  A
O1815      C1816   1.329       .  A
C1816      C1817   1.394       .  A
C1817      H1823   1.082       .  S
O1818      C1819   1.333       .  A
C1819      C1820   1.389       .  A
C1820      H1824   1.082       .  S
C1825      C1830   1.380       .  A
C1825      C1826   1.405       .  A
C1825      O1831   1.318       .  A
C1826      C1827   1.403   1_554  A
C1826      H1837   1.083   1_554  S
C1827      C1836   1.366       .  A
C1827      C1828   1.380       .  A
C1828      C1829   1.405   1_556  A
C1828      O1834   1.319       .  A
C1829      C1830   1.403       .  A
C1829      H1838   1.083       .  S
C1830      C1833   1.365       .  A
O1831      C1832   1.332       .  A
C1832      C1833   1.392       .  A
C1833      H1839   1.083       .  S
O1834      C1835   1.332       .  A
C1835      C1836   1.392       .  A
C1836      H1840   1.083       .  S
C1841      C1846   1.379       .  A
C1841      C1842   1.409   1_655  A
C1841      O1847   1.321       .  A
C1842      C1843   1.407       .  A
C1842      H1853   1.083       .  S
C1843      C1852   1.370       .  A
C1843      C1844   1.380       .  A
C1844      C1845   1.405   1_455  A
C1844      O1850   1.319       .  A
C1845      C1846   1.403       .  A
C1845      H1854   1.083       .  S
C1846      C1849   1.366       .  A
O1847      C1848   1.334       .  A
C1848      C1849   1.392       .  A
C1849      H1855   1.082       .  S
O1850      C1851   1.332       .  A
C1851      C1852   1.395       .  A
C1852      H1856   1.082       .  S
C1857      C1862   1.380       .  A
C1857      C1858   1.409       .  A
C1857      O1863   1.322       .  A
C1858      C1859   1.407       .  A
C1858      H1869   1.082       .  S
C1859      C1868   1.372       .  A
C1859      C1860   1.380       .  A
C1860      C1861   1.402       .  A
C1860      O1866   1.314       .  A
C1861      C1862   1.399       .  A
C1861      H1870   1.083       .  S
C1862      C1865   1.362       .  A
O1863      C1864   1.334       .  A
C1864      C1865   1.389       .  A
C1865      H1871   1.083       .  S
O1866      C1867   1.329       .  A
C1867      C1868   1.393       .  A
C1868      H1872   1.082       .  S
C1873      C1878   1.380       .  A
C1873      C1874   1.401       .  A
C1873      O1879   1.314       .  A
C1874      C1875   1.399       .  A
C1874      H1885   1.082       .  S
C1875      C1884   1.361       .  A
C1875      C1876   1.380       .  A
C1876      C1877   1.408       .  A
C1876      O1882   1.321       .  A
C1877      C1878   1.406       .  A
C1877      H1886   1.082       .  S
C1878      C1881   1.369       .  A
O1879      C1880   1.329       .  A
C1880      C1881   1.392       .  A
C1881      H1887   1.082       .  S
O1882      C1883   1.332       .  A
C1883      C1884   1.388       .  A
C1884      H1888   1.082       .  S
C1889      C1894   1.380       .  A
C1889      C1890   1.407       .  A
C1889      O1895   1.319       .  A
C1890      C1891   1.405       .  A
C1890      H1901   1.083       .  S
C1891      C1900   1.367       .  A
C1891      C1892   1.380       .  A
C1892      C1893   1.404       .  A
C1892      O1898   1.317       .  A
C1893      C1894   1.402       .  A
C1893      H1902   1.083       .  S
C1894      C1897   1.364       .  A
O1895      C1896   1.333       .  A
C1896      C1897   1.391       .  A
C1897      H1903   1.083       .  S
O1898      C1899   1.331       .  A
C1899      C1900   1.393       .  A
C1900      H1904   1.083       .  S
C1905      C1910   1.380       .  A
C1905      C1906   1.409       .  A
C1905      O1911   1.321       .  A
C1906      C1907   1.407       .  A
C1906      H1917   1.082       .  S
C1907      C1916   1.372       .  A
C1907      C1908   1.380       .  A
C1908      C1909   1.402       .  A
C1908      O1914   1.314       .  A
C1909      C1910   1.399       .  A
C1909      H1918   1.083       .  S
C1910      C1913   1.362       .  A
O1911      C1912   1.333       .  A
C1912      C1913   1.389       .  A
C1913      H1919   1.083       .  S
O1914      C1915   1.330       .  A
C1915      C1916   1.393       .  A
C1916      H1920   1.082       .  S
C1921      C1926   1.381       .  A
C1921      C1922   1.406       .  A
C1921      O1927   1.319       .  A
C1922      C1923   1.404       .  A
C1922      H1933   1.083       .  S
C1923      C1932   1.367       .  A
C1923      C1924   1.380       .  A
C1924      C1925   1.401       .  A
C1924      O1930   1.314       .  A
C1925      C1926   1.399       .  A
C1925      H1934   1.083       .  S
C1926      C1929   1.359       .  A
O1927      C1928   1.331       .  A
C1928      C1929   1.388       .  A
C1929      H1935   1.083       .  S
O1930      C1931   1.330       .  A
C1931      C1932   1.391       .  A
C1932      H1936   1.082       .  S
C1937      C1942   1.381       .  A
C1937      C1938   1.402       .  A
C1937      O1943   1.322       .  A
C1938      C1939   1.404       .  A
C1938      H1949   1.082       .  S
C1939      C1948   1.358       .  A
C1939      C1940   1.381       .  A
C1940      C1941   1.404       .  A
C1940      O1946   1.324       .  A
C1941      C1942   1.405       .  A
C1941      H1950   1.083       .  S
C1942      C1945   1.359       .  A
O1943      C1944   1.331       .  A
C1944      C1945   1.393       .  A
C1945      H1951   1.083       .  S
O1946      C1947   1.332       .  A
C1947      C1948   1.392       .  A
C1948      H1952   1.082       .  S
C1953      C1958   1.381       .  A
C1953      C1954   1.409       .  A
C1953      O1959   1.327       .  A
C1954      C1955   1.409       .  A
C1954      H1965   1.082       .  S
C1955      C1964   1.366       .  A
C1955      C1956   1.381       .  A
C1956      C1957   1.400       .  A
C1956      O1962   1.319       .  A
C1957      C1958   1.401       .  A
C1957      H1966   1.082       .  S
C1958      C1961   1.356       .  A
O1959      C1960   1.333       .  A
C1960      C1961   1.388       .  A
C1961      H1967   1.083       .  S
O1962      C1963   1.329       .  A
C1963      C1964   1.395       .  A
C1964      H1968   1.082       .  S
C1969      C1974   1.380       .  A
C1969      C1970   1.408       .  A
C1969      O1975   1.320       .  A
C1970      C1971   1.406       .  A
C1970      H1981   1.082       .  S
C1971      C1980   1.370       .  A
C1971      C1972   1.380       .  A
C1972      C1973   1.403       .  A
C1972      O1978   1.316       .  A
C1973      C1974   1.401       .  A
C1973      H1982   1.082       .  S
C1974      C1977   1.363       .  A
O1975      C1976   1.333       .  A
C1976      C1977   1.389       .  A
C1977      H1983   1.083       .  S
O1978      C1979   1.331       .  A
C1979      C1980   1.393       .  A
C1980      H1984   1.082       .  S
C1985      C1990   1.380       .  A
C1985      C1986   1.405       .  A
C1985      O1991   1.317       .  A
C1986      C1987   1.403       .  A
C1986      H1997   1.082       .  S
C1987      C1996   1.366   1_545  A
C1987      C1988   1.380       .  A
C1988      C1989   1.406       .  A
C1988      O1994   1.319       .  A
C1989      C1990   1.404       .  A
C1989      H1998   1.082       .  S
C1990      C1993   1.368       .  A
O1991      C1992   1.332       .  A
C1992      C1993   1.392       .  A
C1993      H1999   1.082       .  S
O1994      C1995   1.332   1_545  A
C1995      C1996   1.392       .  A
C1996      H2000   1.083       .  S
C2001      C2006   1.381       .  A
C2001      C2002   1.401       .  A
C2001      O2007   1.320       .  A
C2002      C2003   1.402       .  A
C2002      H2013   1.082       .  S
C2003      C2012   1.356       .  A
C2003      C2004   1.381       .  A
C2004      C2005   1.401       .  A
C2004      O2010   1.320       .  A
C2005      C2006   1.402       .  A
C2005      H2014   1.083       .  S
C2006      C2009   1.357       .  A
O2007      C2008   1.329       .  A
C2008      C2009   1.391       .  A
C2009      H2015   1.083       .  S
O2010      C2011   1.330       .  A
C2011      C2012   1.391       .  A
C2012      H2016   1.083       .  S
C2017      C2022   1.380       .  A
C2017      C2018   1.408       .  A
C2017      O2023   1.319       .  A
C2018      C2019   1.405       .  A
C2018      H2029   1.082       .  S
C2019      C2028   1.370       .  A
C2019      C2020   1.381       .  A
C2020      C2021   1.399       .  A
C2020      O2026   1.311       .  A
C2021      C2022   1.396       .  A
C2021      H2030   1.082       .  S
C2022      C2025   1.358       .  A
O2023      C2024   1.332       .  A
C2024      C2025   1.386       .  A
C2025      H2031   1.083       .  S
O2026      C2027   1.328       .  A
C2027      C2028   1.392       .  A
C2028      H2032   1.082       .  S
C2033      C2038   1.382       .  A
C2033      C2034   1.396       .  A
C2033      O2039   1.317       .  A
C2034      C2035   1.397       .  A
C2034      H2045   1.083       .  S
C2035      C2044   1.349       .  A
C2035      C2036   1.381       .  A
C2036      C2037   1.407       .  A
C2036      O2042   1.326       .  A
C2037      C2038   1.408       .  A
C2037      H2046   1.082       .  S
C2038      C2041   1.363       .  A
O2039      C2040   1.327       .  A
C2040      C2041   1.393       .  A
C2041      H2047   1.082       .  S
O2042      C2043   1.332       .  A
C2043      C2044   1.387       .  A
C2044      H2048   1.083       .  S
C2049      C2054   1.380       .  A
C2049      C2050   1.407       .  A
C2049      O2055   1.324       .  A
C2050      C2051   1.407       .  A
C2050      H2061   1.082       .  S
C2051      C2060   1.364       .  A
C2051      C2052   1.381       .  A
C2052      C2053   1.401       .  A
C2052      O2058   1.319       .  A
C2053      C2054   1.402       .  A
C2053      H2062   1.082       .  S
C2054      C2057   1.358       .  A
O2055      C2056   1.332       .  A
C2056      C2057   1.391       .  A
C2057      H2063   1.082       .  S
O2058      C2059   1.329       .  A
C2059      C2060   1.393       .  A
C2060      H2064   1.082       .  S
C2065      C2070   1.380       .  A
C2065      C2066   1.405       .  A
C2065      O2071   1.323       .  A
C2066      C2067   1.405       .  A
C2066      H2077   1.082       .  S
C2067      C2076   1.362       .  A
C2067      C2068   1.380       .  A
C2068      C2069   1.407       .  A
C2068      O2074   1.325       .  A
C2069      C2070   1.408       .  A
C2069      H2078   1.083       .  S
C2070      C2073   1.364       .  A
O2071      C2072   1.332       .  A
C2072      C2073   1.395       .  A
C2073      H2079   1.083       .  S
O2074      C2075   1.334       .  A
C2075      C2076   1.393       .  A
C2076      H2080   1.083       .  S
C2081      C2086   1.380       .  A
C2081      C2082   1.401       .  A
C2081      O2087   1.313       .  A
C2082      C2083   1.398       .  A
C2082      H2093   1.082       .  S
C2083      C2092   1.360       .  A
C2083      C2084   1.380       .  A
C2084      C2085   1.410       .  A
C2084      O2090   1.322       .  A
C2085      C2086   1.408       .  A
C2085      H2094   1.082       .  S
C2086      C2089   1.372       .  A
O2087      C2088   1.329       .  A
C2088      C2089   1.393       .  A
C2089      H2095   1.082       .  S
O2090      C2091   1.334       .  A
C2091      C2092   1.389       .  A
C2092      H2096   1.082       .  S
C2097      C2102   1.380       .  A
C2097      C2098   1.407   1_455  A
C2097      O2103   1.322       .  A
C2098      C2099   1.406       .  A
C2098      H2109   1.083       .  S
C2099      C2108   1.367       .  A
C2099      C2100   1.380       .  A
C2100      C2101   1.404   1_655  A
C2100      O2106   1.319       .  A
C2101      C2102   1.403       .  A
C2101      H2110   1.083       .  S
C2102      C2105   1.362       .  A
O2103      C2104   1.333       .  A
C2104      C2105   1.391       .  A
C2105      H2111   1.083       .  S
O2106      C2107   1.332       .  A
C2107      C2108   1.393       .  A
C2108      H2112   1.082       .  S
C2113      C2118   1.380       .  A
C2113      C2114   1.407       .  A
C2113      O2119   1.323       .  A
C2114      C2115   1.407       .  A
C2114      H2125   1.083       .  S
C2115      C2124   1.367       .  A
C2115      C2116   1.381       .  A
C2116      C2117   1.400       .  A
C2116      O2122   1.316       .  A
C2117      C2118   1.399       .  A
C2117      H2126   1.083       .  S
C2118      C2121   1.358       .  A
O2119      C2120   1.332       .  A
C2120      C2121   1.388       .  A
C2121      H2127   1.083       .  S
O2122      C2123   1.329       .  A
C2123      C2124   1.393       .  A
C2124      H2128   1.083       .  S
C2129      C2134   1.380       .  A
C2129      C2130   1.406       .  A
C2129      O2135   1.318       .  A
C2130      C2131   1.403       .  A
C2130      H2141   1.082       .  S
C2131      C2140   1.368       .  A
C2131      C2132   1.381       .  A
C2132      C2133   1.401       .  A
C2132      O2138   1.313       .  A
C2133      C2134   1.398       .  A
C2133      H2142   1.083       .  S
C2134      C2137   1.360       .  A
O2135      C2136   1.331       .  A
C2136      C2137   1.389       .  A
C2137      H2143   1.083       .  S
O2138      C2139   1.329       .  A
C2139      C2140   1.390       .  A
C2140      H2144   1.082       .  S
C2145      C2150   1.380       .  A
C2145      C2146   1.405       .  A
C2145      O2151   1.324   1_545  A
C2146      C2147   1.406       .  A
C2146      H2157   1.081       .  S
C2147      C2156   1.362       .  A
C2147      C2148   1.380       .  A
C2148      C2149   1.405       .  A
C2148      O2154   1.324       .  A
C2149      C2150   1.406       .  A
C2149      H2158   1.081       .  S
C2150      C2153   1.361   1_545  A
O2151      C2152   1.332       .  A
C2152      C2153   1.393       .  A
C2153      H2159   1.082   1_565  S
O2154      C2155   1.332       .  A
C2155      C2156   1.394       .  A
C2156      H2160   1.082       .  S
C2161      C2166   1.381       .  A
C2161      C2162   1.400       .  A
C2161      O2167   1.318       .  A
C2162      C2163   1.401       .  A
C2162      H2173   1.082       .  S
C2163      C2172   1.356       .  A
C2163      C2164   1.381       .  A
C2164      C2165   1.406       .  A
C2164      O2170   1.325       .  A
C2165      C2166   1.407       .  A
C2165      H2174   1.081       .  S
C2166      C2169   1.363       .  A
O2167      C2168   1.329       .  A
C2168      C2169   1.393       .  A
C2169      H2175   1.082       .  S
O2170      C2171   1.332       .  A
C2171      C2172   1.389       .  A
C2172      H2176   1.082       .  S
C2177      C2182   1.380   1_554  A
C2177      C2178   1.405       .  A
C2177      O2183   1.318   1_554  A
C2178      C2179   1.403       .  A
C2178      H2189   1.083       .  S
C2179      C2188   1.367       .  A
C2179      C2180   1.380       .  A
C2180      C2181   1.406       .  A
C2180      O2186   1.319       .  A
C2181      C2182   1.404   1_554  A
C2181      H2190   1.083   1_554  S
C2182      C2185   1.366       .  A
O2183      C2184   1.332       .  A
C2184      C2185   1.392       .  A
C2185      H2191   1.083       .  S
O2186      C2187   1.333       .  A
C2187      C2188   1.392       .  A
C2188      H2192   1.082       .  S
C2193      C2198   1.381       .  A
C2193      C2194   1.406       .  A
C2193      O2199   1.324       .  A
C2194      C2195   1.407       .  A
C2194      H2205   1.082       .  S
C2195      C2204   1.362       .  A
C2195      C2196   1.381       .  A
C2196      C2197   1.399       .  A
C2196      O2202   1.318       .  A
C2197      C2198   1.400       .  A
C2197      H2206   1.082       .  S
C2198      C2201   1.355       .  A
O2199      C2200   1.332       .  A
C2200      C2201   1.388       .  A
C2201      H2207   1.083       .  S
O2202      C2203   1.329       .  A
C2203      C2204   1.393       .  A
C2204      H2208   1.082       .  S
C2209      C2214   1.380       .  A
C2209      C2210   1.409       .  A
C2209      O2215   1.320       .  A
C2210      C2211   1.406       .  A
C2210      H2221   1.083       .  S
C2211      C2220   1.371       .  A
C2211      C2212   1.381       .  A
C2212      C2213   1.398       .  A
C2212      O2218   1.311       .  A
C2213      C2214   1.396       .  A
C2213      H2222   1.083       .  S
C2214      C2217   1.358       .  A
O2215      C2216   1.333       .  A
C2216      C2217   1.387       .  A
C2217      H2223   1.083       .  S
O2218      C2219   1.327       .  A
C2219      C2220   1.393       .  A
C2220      H2224   1.082       .  S
C2225      C2230   1.380       .  A
C2225      C2226   1.404       .  A
C2225      O2231   1.322       .  A
C2226      C2227   1.405       .  A
C2226      H2237   1.082       .  S
C2227      C2236   1.361       .  A
C2227      C2228   1.380       .  A
C2228      C2229   1.406       .  A
C2228      O2234   1.324       .  A
C2229      C2230   1.406       .  A
C2229      H2238   1.082       .  S
C2230      C2233   1.363       .  A
O2231      C2232   1.331       .  A
C2232      C2233   1.393       .  A
C2233      H2239   1.082       .  S
O2234      C2235   1.333       .  A
C2235      C2236   1.393       .  A
C2236      H2240   1.082       .  S
C2241      C2246   1.381       .  A
C2241      C2242   1.400       .  A
C2241      O2247   1.318       .  A
C2242      C2243   1.400       .  A
C2242      H2253   1.082       .  S
C2243      C2252   1.355       .  A
C2243      C2244   1.381       .  A
C2244      C2245   1.406       .  A
C2244      O2250   1.324       .  A
C2245      C2246   1.407       .  A
C2245      H2254   1.082       .  S
C2246      C2249   1.363       .  A
O2247      C2248   1.329       .  A
C2248      C2249   1.393       .  A
C2249      H2255   1.082       .  S
O2250      C2251   1.331       .  A
C2251      C2252   1.388       .  A
C2252      H2256   1.083       .  S
C2257      C2262   1.380       .  A
C2257      C2258   1.404       .  A
C2257      O2263   1.323       .  A
C2258      C2259   1.405       .  A
C2258      H2269   1.082       .  S
C2259      C2268   1.360       .  A
C2259      C2260   1.380       .  A
C2260      C2261   1.407       .  A
C2260      O2266   1.325       .  A
C2261      C2262   1.408       .  A
C2261      H2270   1.082       .  S
C2262      C2265   1.365       .  A
O2263      C2264   1.332       .  A
C2264      C2265   1.395       .  A
C2265      H2271   1.083       .  S
O2266      C2267   1.333       .  A
C2267      C2268   1.393       .  A
C2268      H2272   1.083       .  S
C2273      C2278   1.380       .  A
C2273      C2274   1.403       .  A
C2273      O2279   1.315       .  A
C2274      C2275   1.400       .  A
C2274      H2285   1.082       .  S
C2275      C2284   1.361       .  A
C2275      C2276   1.380       .  A
C2276      C2277   1.405       .  A
C2276      O2282   1.319       .  A
C2277      C2278   1.403       .  A
C2277      H2286   1.081       .  S
C2278      C2281   1.366       .  A
O2279      C2280   1.330       .  A
C2280      C2281   1.389       .  A
C2281      H2287   1.082       .  S
O2282      C2283   1.331       .  A
C2283      C2284   1.390       .  A
C2284      H2288   1.082       .  S
C2289      C2294   1.380       .  A
C2289      C2290   1.408       .  A
C2289      O2295   1.320       .  A
C2290      C2291   1.405       .  A
C2290      H2301   1.082       .  S
C2291      C2300   1.370       .  A
C2291      C2292   1.380       .  A
C2292      C2293   1.402       .  A
C2292      O2298   1.314       .  A
C2293      C2294   1.399       .  A
C2293      H2302   1.083       .  S
C2294      C2297   1.363       .  A
O2295      C2296   1.332       .  A
C2296      C2297   1.390       .  A
C2297      H2303   1.083       .  S
O2298      C2299   1.329       .  A
C2299      C2300   1.392       .  A
C2300      H2304   1.082       .  S
C2305      C2310   1.380       .  A
C2305      C2306   1.406       .  A
C2305      O2311   1.319   1_545  A
C2306      C2307   1.404       .  A
C2306      H2317   1.082       .  S
C2307      C2316   1.368       .  A
C2307      C2308   1.380       .  A
C2308      C2309   1.407       .  A
C2308      O2314   1.319       .  A
C2309      C2310   1.405       .  A
C2309      H2318   1.083       .  S
C2310      C2313   1.368   1_545  A
O2311      C2312   1.332       .  A
C2312      C2313   1.393       .  A
C2313      H2319   1.082       .  S
O2314      C2315   1.333       .  A
C2315      C2316   1.392       .  A
C2316      H2320   1.082       .  S
C2321      C2326   1.380       .  A
C2321      C2322   1.401       .  A
C2321      O2327   1.314       .  A
C2322      C2323   1.399       .  A
C2322      H2333   1.081       .  S
C2323      C2332   1.361       .  A
C2323      C2324   1.380       .  A
C2324      C2325   1.407       .  A
C2324      O2330   1.319       .  A
C2325      C2326   1.405       .  A
C2325      H2334   1.081       .  S
C2326      C2329   1.367       .  A
O2327      C2328   1.329       .  A
C2328      C2329   1.392       .  A
C2329      H2335   1.082       .  S
O2330      C2331   1.333       .  A
C2331      C2332   1.389       .  A
C2332      H2336   1.082       .  S
C2337      C2342   1.380       .  A
C2337      C2338   1.408       .  A
C2337      O2343   1.320       .  A
C2338      C2339   1.405       .  A
C2338      H2349   1.082       .  S
C2339      C2348   1.369       .  A
C2339      C2340   1.381       .  A
C2340      C2341   1.399       .  A
C2340      O2346   1.312       .  A
C2341      C2342   1.397       .  A
C2341      H2350   1.083       .  S
C2342      C2345   1.358       .  A
O2343      C2344   1.333       .  A
C2344      C2345   1.387       .  A
C2345      H2351   1.083       .  S
O2346      C2347   1.328       .  A
C2347      C2348   1.392       .  A
C2348      H2352   1.082       .  S
C2353      C2358   1.380       .  A
C2353      C2354   1.407       .  A
C2353      O2359   1.325       .  A
C2354      C2355   1.408   1_556  A
C2354      H2365   1.081       .  S
C2355      C2364   1.364       .  A
C2355      C2356   1.381       .  A
C2356      C2357   1.402       .  A
C2356      O2362   1.321       .  A
C2357      C2358   1.402   1_554  A
C2357      H2366   1.081       .  S
C2358      C2361   1.357       .  A
O2359      C2360   1.333       .  A
C2360      C2361   1.391       .  A
C2361      H2367   1.082       .  S
O2362      C2363   1.330       .  A
C2363      C2364   1.394       .  A
C2364      H2368   1.082       .  S
C2369      C2374   1.380       .  A
C2369      C2370   1.404       .  A
C2369      O2375   1.322       .  A
C2370      C2371   1.404       .  A
C2370      H2381   1.082       .  S
C2371      C2380   1.361       .  A
C2371      C2372   1.380       .  A
C2372      C2373   1.405       .  A
C2372      O2378   1.323       .  A
C2373      C2374   1.406       .  A
C2373      H2382   1.082       .  S
C2374      C2377   1.362       .  A
O2375      C2376   1.331       .  A
C2376      C2377   1.393       .  A
C2377      H2383   1.082       .  S
O2378      C2379   1.332       .  A
C2379      C2380   1.392       .  A
C2380      H2384   1.082       .  S
C2385      C2390   1.381       .  A
C2385      C2386   1.397       .  A
C2385      O2391   1.309       .  A
C2386      C2387   1.395       .  A
C2386      H2397   1.081       .  S
C2387      C2396   1.357       .  A
C2387      C2388   1.380       .  A
C2388      C2389   1.409       .  A
C2388      O2394   1.320       .  A
C2389      C2390   1.406       .  A
C2389      H2398   1.081       .  S
C2390      C2393   1.370       .  A
O2391      C2392   1.327       .  A
C2392      C2393   1.393       .  A
C2393      H2399   1.082       .  S
O2394      C2395   1.333       .  A
C2395      C2396   1.386       .  A
C2396      H2400   1.082       .  S
C2401      C2406   1.380       .  A
C2401      C2402   1.402       .  A
C2401      O2407   1.314       .  A
C2402      C2403   1.399       .  A
C2402      H2413   1.083       .  S
C2403      C2412   1.362       .  A
C2403      C2404   1.380       .  A
C2404      C2405   1.408       .  A
C2404      O2410   1.320       .  A
C2405      C2406   1.406       .  A
C2405      H2414   1.082       .  S
C2406      C2409   1.370       .  A
O2407      C2408   1.329       .  A
C2408      C2409   1.392       .  A
C2409      H2415   1.082       .  S
O2410      C2411   1.333       .  A
C2411      C2412   1.390       .  A
C2412      H2416   1.083       .  S
C2417      C2422   1.381   1_655  A
C2417      C2418   1.401       .  A
C2417      O2423   1.317       .  A
C2418      C2419   1.401   1_655  A
C2418      H2429   1.082       .  S
C2419      C2428   1.359       .  A
C2419      C2420   1.380       .  A
C2420      C2421   1.406       .  A
C2420      O2426   1.323       .  A
C2421      C2422   1.406       .  A
C2421      H2430   1.082       .  S
C2422      C2425   1.364   1_455  A
O2423      C2424   1.329       .  A
C2424      C2425   1.393       .  A
C2425      H2431   1.083       .  S
O2426      C2427   1.333       .  A
C2427      C2428   1.391       .  A
C2428      H2432   1.082       .  S
C2433      C2438   1.381       .  A
C2433      C2434   1.404       .  A
C2433      O2439   1.319       .  A
C2434      C2435   1.403       .  A
C2434      H2445   1.081       .  S
C2435      C2444   1.361       .  A
C2435      C2436   1.381       .  A
C2436      C2437   1.403       .  A
C2436      O2442   1.320       .  A
C2437      C2438   1.403       .  A
C2437      H2446   1.081       .  S
C2438      C2441   1.362       .  A
O2439      C2440   1.331       .  A
C2440      C2441   1.390       .  A
C2441      H2447   1.082       .  S
O2442      C2443   1.330       .  A
C2443      C2444   1.391       .  A
C2444      H2448   1.082       .  S
C2449      C2454   1.380       .  A
C2449      C2450   1.403       .  A
C2449      O2455   1.321       .  A
C2450      C2451   1.404       .  A
C2450      H2461   1.082       .  S
C2451      C2460   1.360       .  A
C2451      C2452   1.380       .  A
C2452      C2453   1.405       .  A
C2452      O2458   1.323       .  A
C2453      C2454   1.406       .  A
C2453      H2462   1.082       .  S
C2454      C2457   1.362       .  A
O2455      C2456   1.331       .  A
C2456      C2457   1.393       .  A
C2457      H2463   1.083       .  S
O2458      C2459   1.332       .  A
C2459      C2460   1.392       .  A
C2460      H2464   1.083       .  S
C2465      C2470   1.380       .  A
C2465      C2466   1.407       .  A
C2465      O2471   1.320       .  A
C2466      C2467   1.405       .  A
C2466      H2477   1.082       .  S
C2467      C2476   1.368       .  A
C2467      C2468   1.380       .  A
C2468      C2469   1.401       .  A
C2468      O2474   1.315       .  A
C2469      C2470   1.399       .  A
C2469      H2478   1.082       .  S
C2470      C2473   1.360       .  A
O2471      C2472   1.332       .  A
C2472      C2473   1.388       .  A
C2473      H2479   1.083       .  S
O2474      C2475   1.329       .  A
C2475      C2476   1.392       .  A
C2476      H2480   1.082       .  S
C2481      C2486   1.380       .  A
C2481      C2482   1.402       .  A
C2481      O2487   1.315       .  A
C2482      C2483   1.400       .  A
C2482      H2493   1.083       .  S
C2483      C2492   1.362       .  A
C2483      C2484   1.380       .  A
C2484      C2485   1.409       .  A
C2484      O2490   1.322       .  A
C2485      C2486   1.407       .  A
C2485      H2494   1.083       .  S
C2486      C2489   1.370       .  A
O2487      C2488   1.330       .  A
C2488      C2489   1.393       .  A
C2489      H2495   1.082       .  S
O2490      C2491   1.333       .  A
C2491      C2492   1.389       .  A
C2492      H2496   1.083       .  S
C2497      C2502   1.381       .  A
C2497      C2498   1.404       .  A
C2497      O2503   1.321       .  A
C2498      C2499   1.404       .  A
C2498      H2509   1.083       .  S
C2499      C2508   1.360       .  A
C2499      C2500   1.381       .  A
C2500      C2501   1.399       .  A
C2500      O2506   1.318       .  A
C2501      C2502   1.400       .  A
C2501      H2510   1.083       .  S
C2502      C2505   1.355       .  A
O2503      C2504   1.331       .  A
C2504      C2505   1.390       .  A
C2505      H2511   1.083       .  S
O2506      C2507   1.328       .  A
C2507      C2508   1.392       .  A
C2508      H2512   1.083       .  S
C2513      C2518   1.381       .  A
C2513      C2514   1.401       .  A
C2513      O2519   1.319       .  A
C2514      C2515   1.401       .  A
C2514      H2525   1.083       .  S
C2515      C2524   1.356       .  A
C2515      C2516   1.381       .  A
C2516      C2517   1.402       .  A
C2516      O2522   1.321       .  A
C2517      C2518   1.403       .  A
C2517      H2526   1.083       .  S
C2518      C2521   1.358       .  A
O2519      C2520   1.330       .  A
C2520      C2521   1.392       .  A
C2521      H2527   1.083       .  S
O2522      C2523   1.330       .  A
C2523      C2524   1.391       .  A
C2524      H2528   1.083       .  S
C2529      C2534   1.380       .  A
C2529      C2530   1.409       .  A
C2529      O2535   1.327       .  A
C2530      C2531   1.410       .  A
C2530      H2541   1.082       .  S
C2531      C2540   1.367       .  A
C2531      C2532   1.381       .  A
C2532      C2533   1.399       .  A
C2532      O2538   1.318       .  A
C2533      C2534   1.400       .  A
C2533      H2542   1.083   1_565  S
C2534      C2537   1.355       .  A
O2535      C2536   1.334       .  A
C2536      C2537   1.390       .  A
C2537      H2543   1.083       .  S
O2538      C2539   1.328       .  A
C2539      C2540   1.395       .  A
C2540      H2544   1.083       .  S
C2545      C2550   1.381       .  A
C2545      C2546   1.399       .  A
C2545      O2551   1.318       .  A
C2546      C2547   1.399       .  A
C2546      H2557   1.081       .  S
C2547      C2556   1.355       .  A
C2547      C2548   1.381       .  A
C2548      C2549   1.402       .  A
C2548      O2554   1.320       .  A
C2549      C2550   1.402       .  A
C2549      H2558   1.082       .  S
C2550      C2553   1.358       .  A
O2551      C2552   1.328       .  A
C2552      C2553   1.391       .  A
C2553      H2559   1.082       .  S
O2554      C2555   1.330       .  A
C2555      C2556   1.389       .  A
C2556      H2560   1.082       .  S
C2561      C2566   1.380       .  A
C2561      C2562   1.401       .  A
C2561      O2567   1.315       .  A
C2562      C2563   1.399       .  A
C2562      H2573   1.083       .  S
C2563      C2572   1.361       .  A
C2563      C2564   1.380       .  A
C2564      C2565   1.410       .  A
C2564      O2570   1.322       .  A
C2565      C2566   1.408       .  A
C2565      H2574   1.083       .  S
C2566      C2569   1.372       .  A
O2567      C2568   1.330       .  A
C2568      C2569   1.394       .  A
C2569      H2575   1.082       .  S
O2570      C2571   1.334       .  A
C2571      C2572   1.388       .  A
C2572      H2576   1.083       .  S
C2577      C2582   1.381       .  A
C2577      C2578   1.401       .  A
C2577      O2583   1.320       .  A
C2578      C2579   1.402       .  A
C2578      H2589   1.081       .  S
C2579      C2588   1.357       .  A
C2579      C2580   1.381       .  A
C2580      C2581   1.403       .  A
C2580      O2586   1.321       .  A
C2581      C2582   1.403       .  A
C2581      H2590   1.081       .  S
C2582      C2585   1.359       .  A
O2583      C2584   1.330       .  A
C2584      C2585   1.392       .  A
C2585      H2591   1.082       .  S
O2586      C2587   1.330       .  A
C2587      C2588   1.391       .  A
C2588      H2592   1.082       .  S
C2593      C2598   1.381       .  A
C2593      C2594   1.400       .  A
C2593      O2599   1.320       .  A
C2594      C2595   1.401       .  A
C2594      H2605   1.082       .  S
C2595      C2604   1.355       .  A
C2595      C2596   1.381       .  A
C2596      C2597   1.406       .  A
C2596      O2602   1.325       .  A
C2597      C2598   1.407       .  A
C2597      H2606   1.082       .  S
C2598      C2601   1.362       .  A
O2599      C2600   1.329       .  A
C2600      C2601   1.393       .  A
C2601      H2607   1.082       .  S
O2602      C2603   1.332       .  A
C2603      C2604   1.389       .  A
C2604      H2608   1.083       .  S
C2609      C2614   1.381       .  A
C2609      C2610   1.403       .  A
C2609      O2615   1.322       .  A
C2610      C2611   1.404       .  A
C2610      H2621   1.082       .  S
C2611      C2620   1.358       .  A
C2611      C2612   1.381       .  A
C2612      C2613   1.405       .  A
C2612      O2618   1.324       .  A
C2613      C2614   1.406       .  A
C2613      H2622   1.082       .  S
C2614      C2617   1.361       .  A
O2615      C2616   1.331       .  A
C2616      C2617   1.393       .  A
C2617      H2623   1.083       .  S
O2618      C2619   1.332       .  A
C2619      C2620   1.392       .  A
C2620      H2624   1.083       .  S
C2625      C2630   1.380       .  A
C2625      C2626   1.400       .  A
C2625      O2631   1.313       .  A
C2626      C2627   1.398       .  A
C2626      H2637   1.083       .  S
C2627      C2636   1.359       .  A
C2627      C2628   1.380       .  A
C2628      C2629   1.408       .  A
C2628      O2634   1.321       .  A
C2629      C2630   1.407       .  A
C2629      H2638   1.083       .  S
C2630      C2633   1.370       .  A
O2631      C2632   1.329       .  A
C2632      C2633   1.393       .  A
C2633      H2639   1.082       .  S
O2634      C2635   1.333       .  A
C2635      C2636   1.388       .  A
C2636      H2640   1.083       .  S
C2641      C2646   1.381       .  A
C2641      C2642   1.405       .  A
C2641      O2647   1.323       .  A
C2642      C2643   1.406       .  A
C2642      H2653   1.082       .  S
C2643      C2652   1.361       .  A
C2643      C2644   1.381       .  A
C2644      C2645   1.401       .  A
C2644      O2650   1.320       .  A
C2645      C2646   1.402       .  A
C2645      H2654   1.083       .  S
C2646      C2649   1.358       .  A
O2647      C2648   1.332       .  A
C2648      C2649   1.392       .  A
C2649      H2655   1.083       .  S
O2650      C2651   1.330       .  A
C2651      C2652   1.393       .  A
C2652      H2656   1.083       .  S
C2657      C2662   1.381       .  A
C2657      C2658   1.408       .  A
C2657      O2663   1.327       .  A
C2658      C2659   1.409       .  A
C2658      H2669   1.083       .  S
C2659      C2668   1.364       .  A
C2659      C2660   1.381       .  A
C2660      C2661   1.399       .  A
C2660      O2666   1.319       .  A
C2661      C2662   1.400       .  A
C2661      H2670   1.083       .  S
C2662      C2665   1.353       .  A
O2663      C2664   1.333       .  A
C2664      C2665   1.388       .  A
C2665      H2671   1.083       .  S
O2666      C2667   1.329       .  A
C2667      C2668   1.394       .  A
C2668      H2672   1.082       .  S
C2673      C2678   1.381       .  A
C2673      C2674   1.401       .  A
C2673      O2679   1.313       .  A
C2674      C2675   1.399       .  A
C2674      H2685   1.083       .  S
C2675      C2684   1.362       .  A
C2675      C2676   1.380       .  A
C2676      C2677   1.405       .  A
C2676      O2682   1.317       .  A
C2677      C2678   1.402       .  A
C2677      H2686   1.082       .  S
C2678      C2681   1.366       .  A
O2679      C2680   1.329       .  A
C2680      C2681   1.389       .  A
C2681      H2687   1.082       .  S
O2682      C2683   1.331       .  A
C2683      C2684   1.390       .  A
C2684      H2688   1.083       .  S
C2689      C2694   1.380       .  A
C2689      C2690   1.405       .  A
C2689      O2695   1.319       .  A
C2690      C2691   1.403       .  A
C2690      H2701   1.082       .  S
C2691      C2700   1.365       .  A
C2691      C2692   1.380       .  A
C2692      C2693   1.405       .  A
C2692      O2698   1.319       .  A
C2693      C2694   1.404       .  A
C2693      H2702   1.082       .  S
C2694      C2697   1.366       .  A
O2695      C2696   1.332       .  A
C2696      C2697   1.392       .  A
C2697      H2703   1.082       .  S
O2698      C2699   1.332       .  A
C2699      C2700   1.392       .  A
C2700      H2704   1.082       .  S
C2705      C2710   1.380       .  A
C2705      C2706   1.407       .  A
C2705      O2711   1.320   1_545  A
C2706      C2707   1.405       .  A
C2706      H2717   1.083   1_545  S
C2707      C2716   1.368       .  A
C2707      C2708   1.380       .  A
C2708      C2709   1.406       .  A
C2708      O2714   1.319       .  A
C2709      C2710   1.404       .  A
C2709      H2718   1.083       .  S
C2710      C2713   1.367       .  A
O2711      C2712   1.333   1_565  A
C2712      C2713   1.392       .  A
C2713      H2719   1.082       .  S
O2714      C2715   1.332       .  A
C2715      C2716   1.393       .  A
C2716      H2720   1.083       .  S
C2721      C2726   1.381       .  A
C2721      C2722   1.400       .  A
C2721      O2727   1.319       .  A
C2722      C2723   1.401       .  A
C2722      H2733   1.081       .  S
C2723      C2732   1.355       .  A
C2723      C2724   1.381       .  A
C2724      C2725   1.404       .  A
C2724      O2730   1.322       .  A
C2725      C2726   1.404       .  A
C2725      H2734   1.081       .  S
C2726      C2729   1.360       .  A
O2727      C2728   1.329       .  A
C2728      C2729   1.392       .  A
C2729      H2735   1.082       .  S
O2730      C2731   1.331       .  A
C2731      C2732   1.390       .  A
C2732      H2736   1.082       .  S
C2737      C2742   1.379       .  A
C2737      C2738   1.412       .  A
C2737      O2743   1.324       .  A
C2738      C2739   1.410       .  A
C2738      H2749   1.082       .  S
C2739      C2748   1.373       .  A
C2739      C2740   1.379       .  A
C2740      C2741   1.404       .  A
C2740      O2746   1.317       .  A
C2741      C2742   1.402       .  A
C2741      H2750   1.082       .  S
C2742      C2745   1.364       .  A
O2743      C2744   1.335       .  A
C2744      C2745   1.390       .  A
C2745      H2751   1.082       .  S
O2746      C2747   1.331       .  A
C2747      C2748   1.395       .  A
C2748      H2752   1.082       .  S
C2753      C2758   1.381       .  A
C2753      C2754   1.401       .  A
C2753      O2759   1.320       .  A
C2754      C2755   1.402       .  A
C2754      H2765   1.081       .  S
C2755      C2764   1.358       .  A
C2755      C2756   1.381       .  A
C2756      C2757   1.403       .  A
C2756      O2762   1.321       .  A
C2757      C2758   1.404       .  A
C2757      H2766   1.082       .  S
C2758      C2761   1.359       .  A
O2759      C2760   1.330       .  A
C2760      C2761   1.392       .  A
C2761      H2767   1.082       .  S
O2762      C2763   1.331       .  A
C2763      C2764   1.391       .  A
C2764      H2768   1.082       .  S
C2769      C2774   1.380       .  A
C2769      C2770   1.411       .  A
C2769      O2775   1.323       .  A
C2770      C2771   1.409       .  A
C2770      H2781   1.082       .  S
C2771      C2780   1.373       .  A
C2771      C2772   1.380       .  A
C2772      C2773   1.399       .  A
C2772      O2778   1.312       .  A
C2773      C2774   1.397       .  A
C2773      H2782   1.083       .  S
C2774      C2777   1.358       .  A
O2775      C2776   1.334       .  A
C2776      C2777   1.386       .  A
C2777      H2783   1.083       .  S
O2778      C2779   1.328       .  A
C2779      C2780   1.395       .  A
C2780      H2784   1.082       .  S
C2785      C2790   1.380       .  A
C2785      C2786   1.405       .  A
C2785      O2791   1.316       .  A
C2786      C2787   1.402       .  A
C2786      H2797   1.082       .  S
C2787      C2796   1.366       .  A
C2787      C2788   1.380       .  A
C2788      C2789   1.403       .  A
C2788      O2794   1.315       .  A
C2789      C2790   1.400       .  A
C2789      H2798   1.082       .  S
C2790      C2793   1.364       .  A
O2791      C2792   1.331       .  A
C2792      C2793   1.390       .  A
C2793      H2799   1.082       .  S
O2794      C2795   1.330       .  A
C2795      C2796   1.391       .  A
C2796      H2800   1.082       .  S
C2801      C2806   1.380       .  A
C2801      C2802   1.405       .  A
C2801      O2807   1.322       .  A
C2802      C2803   1.405       .  A
C2802      H2813   1.082       .  S
C2803      C2812   1.362       .  A
C2803      C2804   1.380       .  A
C2804      C2805   1.406       .  A
C2804      O2810   1.323       .  A
C2805      C2806   1.406       .  A
C2805      H2814   1.082   1_545  S
C2806      C2809   1.364   1_545  A
O2807      C2808   1.332   1_545  A
C2808      C2809   1.394       .  A
C2809      H2815   1.083       .  S
O2810      C2811   1.332       .  A
C2811      C2812   1.393       .  A
C2812      H2816   1.083       .  S
C2817      C2822   1.379       .  A
C2817      C2818   1.411       .  A
C2817      O2823   1.324       .  A
C2818      C2819   1.409       .  A
C2818      H2829   1.082       .  S
C2819      C2828   1.373       .  A
C2819      C2820   1.380       .  A
C2820      C2821   1.402       .  A
C2820      O2826   1.316       .  A
C2821      C2822   1.400       .  A
C2821      H2830   1.082       .  S
C2822      C2825   1.362       .  A
O2823      C2824   1.335       .  A
C2824      C2825   1.389       .  A
C2825      H2831   1.082       .  S
O2826      C2827   1.330       .  A
C2827      C2828   1.395       .  A
C2828      H2832   1.082       .  S
C2833      C2838   1.381       .  A
C2833      C2834   1.401       .  A
C2833      O2839   1.317       .  A
C2834      C2835   1.401       .  A
C2834      H2845   1.081       .  S
C2835      C2844   1.358       .  A
C2835      C2836   1.380       .  A
C2836      C2837   1.405       .  A
C2836      O2842   1.321       .  A
C2837      C2838   1.405       .  A
C2837      H2846   1.081       .  S
C2838      C2841   1.364       .  A
O2839      C2840   1.330       .  A
C2840      C2841   1.393       .  A
C2841      H2847   1.082       .  S
O2842      C2843   1.331       .  A
C2843      C2844   1.390       .  A
C2844      H2848   1.082       .  S
C2849      C2854   1.380       .  A
C2849      C2850   1.410       .  A
C2849      O2855   1.322       .  A
C2850      C2851   1.408       .  A
C2850      H2861   1.082       .  S
C2851      C2860   1.373       .  A
C2851      C2852   1.380       .  A
C2852      C2853   1.400       .  A
C2852      O2858   1.312       .  A
C2853      C2854   1.397       .  A
C2853      H2862   1.082       .  S
C2854      C2857   1.359       .  A
O2855      C2856   1.334       .  A
C2856      C2857   1.388       .  A
C2857      H2863   1.082       .  S
O2858      C2859   1.328       .  A
C2859      C2860   1.394       .  A
C2860      H2864   1.082       .  S
C2865      C2870   1.381       .  A
C2865      C2866   1.403       .  A
C2865      O2871   1.320       .  A
C2866      C2867   1.403       .  A
C2866      H2877   1.082       .  S
C2867      C2876   1.359       .  A
C2867      C2868   1.381       .  A
C2868      C2869   1.400       .  A
C2868      O2874   1.318       .  A
C2869      C2870   1.400       .  A
C2869      H2878   1.081       .  S
C2870      C2873   1.356       .  A
O2871      C2872   1.330       .  A
C2872      C2873   1.390       .  A
C2873      H2879   1.082       .  S
O2874      C2875   1.328       .  A
C2875      C2876   1.392       .  A
C2876      H2880   1.082       .  S
C2881      C2886   1.380       .  A
C2881      C2882   1.400       .  A
C2881      O2887   1.313       .  A
C2882      C2883   1.398       .  A
C2882      H2893   1.083       .  S
C2883      C2892   1.359       .  A
C2883      C2884   1.380       .  A
C2884      C2885   1.409       .  A
C2884      O2890   1.322       .  A
C2885      C2886   1.407       .  A
C2885      H2894   1.083       .  S
C2886      C2889   1.370       .  A
O2887      C2888   1.329       .  A
C2888      C2889   1.393       .  A
C2889      H2895   1.082       .  S
O2890      C2891   1.333       .  A
C2891      C2892   1.388       .  A
C2892      H2896   1.083       .  S
C2897      C2902   1.381       .  A
C2897      C2898   1.397       .  A
C2897      O2903   1.311       .  A
C2898      C2899   1.395       .  A
C2898      H2909   1.082       .  S
C2899      C2908   1.356       .  A
C2899      C2900   1.380       .  A
C2900      C2901   1.411       .  A
C2900      O2906   1.323       .  A
C2901      C2902   1.409       .  A
C2901      H2910   1.082       .  S
C2902      C2905   1.373       .  A
O2903      C2904   1.326       .  A
C2904      C2905   1.394       .  A
C2905      H2911   1.082       .  S
O2906      C2907   1.335       .  A
C2907      C2908   1.386       .  A
C2908      H2912   1.082       .  S
C2913      C2918   1.380       .  A
C2913      C2914   1.405       .  A
C2913      O2919   1.320       .  A
C2914      C2915   1.404       .  A
C2914      H2925   1.081       .  S
C2915      C2924   1.365       .  A
C2915      C2916   1.381       .  A
C2916      C2917   1.402       .  A
C2916      O2922   1.317       .  A
C2917      C2918   1.401       .  A
C2917      H2926   1.081       .  S
C2918      C2921   1.360       .  A
O2919      C2920   1.332       .  A
C2920      C2921   1.390       .  A
C2921      H2927   1.082       .  S
O2922      C2923   1.330       .  A
C2923      C2924   1.392       .  A
C2924      H2928   1.082       .  S
C2929      C2934   1.380   1_556  A
C2929      C2930   1.405       .  A
C2929      O2935   1.319       .  A
C2930      C2931   1.404   1_556  A
C2930      H2941   1.082       .  S
C2931      C2940   1.365       .  A
C2931      C2932   1.380       .  A
C2932      C2933   1.405       .  A
C2932      O2938   1.319       .  A
C2933      C2934   1.404       .  A
C2933      H2942   1.082       .  S
C2934      C2937   1.365       .  A
O2935      C2936   1.332       .  A
C2936      C2937   1.392   1_556  A
C2937      H2943   1.082       .  S
O2938      C2939   1.332       .  A
C2939      C2940   1.392       .  A
C2940      H2944   1.082       .  S
C2945      C2950   1.381       .  A
C2945      C2946   1.402       .  A
C2945      O2951   1.320       .  A
C2946      C2947   1.402       .  A
C2946      H2957   1.082       .  S
C2947      C2956   1.357       .  A
C2947      C2948   1.381       .  A
C2948      C2949   1.404       .  A
C2948      O2954   1.323       .  A
C2949      C2950   1.405       .  A
C2949      H2958   1.082       .  S
C2950      C2953   1.361       .  A
O2951      C2952   1.330       .  A
C2952      C2953   1.393       .  A
C2953      H2959   1.082       .  S
O2954      C2955   1.331       .  A
C2955      C2956   1.391       .  A
C2956      H2960   1.082       .  S
C2961      C2966   1.381       .  A
C2961      C2962   1.408       .  A
C2961      O2967   1.326       .  A
C2962      C2963   1.409       .  A
C2962      H2973   1.083       .  S
C2963      C2972   1.366       .  A
C2963      C2964   1.381       .  A
C2964      C2965   1.398       .  A
C2964      O2970   1.317       .  A
C2965      C2966   1.398       .  A
C2965      H2974   1.083       .  S
C2966      C2969   1.353       .  A
O2967      C2968   1.333       .  A
C2968      C2969   1.387       .  A
C2969      H2975   1.083       .  S
O2970      C2971   1.328       .  A
C2971      C2972   1.394       .  A
C2972      H2976   1.082       .  S
C2977      C2982   1.381       .  A
C2977      C2978   1.402       .  A
C2977      O2983   1.320       .  A
C2978      C2979   1.402       .  A
C2978      H2989   1.082       .  S
C2979      C2988   1.358       .  A
C2979      C2980   1.381       .  A
C2980      C2981   1.402       .  A
C2980      O2986   1.321       .  A
C2981      C2982   1.403       .  A
C2981      H2990   1.082       .  S
C2982      C2985   1.359       .  A
O2983      C2984   1.330       .  A
C2984      C2985   1.391       .  A
C2985      H2991   1.082       .  S
O2986      C2987   1.330       .  A
C2987      C2988   1.391       .  A
C2988      H2992   1.082       .  S
C2993      C2998   1.381       .  A
C2993      C2994   1.399       .  A
C2993      O2999   1.318       .  A
C2994      C2995   1.400       .  A
C2994      H3005   1.082       .  S
C2995      C3004   1.353       .  A
C2995      C2996   1.381       .  A
C2996      C2997   1.406       .  A
C2996      O3002   1.326       .  A
C2997      C2998   1.408       .  A
C2997      H3006   1.082       .  S
C2998      C3001   1.363       .  A
O2999      C3000   1.328       .  A
C3000      C3001   1.393       .  A
C3001      H3007   1.082       .  S
O3002      C3003   1.332       .  A
C3003      C3004   1.389       .  A
C3004      H3008   1.083       .  S
C3009      C3014   1.380       .  A
C3009      C3010   1.403       .  A
C3009      O3015   1.316       .  A
C3010      C3011   1.401       .  A
C3010      H3021   1.082       .  S
C3011      C3020   1.363       .  A
C3011      C3012   1.380       .  A
C3012      C3013   1.403       .  A
C3012      O3018   1.316       .  A
C3013      C3014   1.401       .  A
C3013      H3022   1.082       .  S
C3014      C3017   1.363       .  A
O3015      C3016   1.331       .  A
C3016      C3017   1.390       .  A
C3017      H3023   1.082       .  S
O3018      C3019   1.330       .  A
C3019      C3020   1.390       .  A
C3020      H3024   1.082       .  S
C3025      C3030   1.380       .  A
C3025      C3026   1.408       .  A
C3025      O3031   1.321       .  A
C3026      C3027   1.406       .  A
C3026      H3037   1.081       .  S
C3027      C3036   1.370       .  A
C3027      C3028   1.380       .  A
C3028      C3029   1.403       .  A
C3028      O3034   1.316       .  A
C3029      C3030   1.401       .  A
C3029      H3038   1.082   1_565  S
C3030      C3033   1.362       .  A
O3031      C3032   1.332       .  A
C3032      C3033   1.389       .  A
C3033      H3039   1.082   1_565  S
O3034      C3035   1.331       .  A
C3035      C3036   1.393       .  A
C3036      H3040   1.082       .  S
C3041      C3046   1.381       .  A
C3041      C3042   1.401       .  A
C3041      O3047   1.318       .  A
C3042      C3043   1.401       .  A
C3042      H3053   1.081       .  S
C3043      C3052   1.357       .  A
C3043      C3044   1.381       .  A
C3044      C3045   1.404       .  A
C3044      O3050   1.321       .  A
C3045      C3046   1.404       .  A
C3045      H3054   1.081       .  S
C3046      C3049   1.361       .  A
O3047      C3048   1.330       .  A
C3048      C3049   1.392       .  A
C3049      H3055   1.082       .  S
O3050      C3051   1.331       .  A
C3051      C3052   1.390       .  A
C3052      H3056   1.082       .  S
C3057      C3062   1.380       .  A
C3057      C3058   1.407   1_554  A
C3057      O3063   1.324       .  A
C3058      C3059   1.407       .  A
C3058      H3069   1.082       .  S
C3059      C3068   1.365       .  A
C3059      C3060   1.380   1_556  A
C3060      C3061   1.408       .  A
C3060      O3066   1.326       .  A
C3061      C3062   1.409       .  A
C3061      H3070   1.082       .  S
C3062      C3065   1.366       .  A
O3063      C3064   1.334       .  A
C3064      C3065   1.395       .  A
C3065      H3071   1.082       .  S
O3066      C3067   1.334   1_554  A
C3067      C3068   1.394       .  A
C3068      H3072   1.082       .  S
C3073      C3078   1.380       .  A
C3073      C3074   1.403       .  A
C3073      O3079   1.321       .  A
C3074      C3075   1.404       .  A
C3074      H3085   1.081       .  S
C3075      C3084   1.359       .  A
C3075      C3076   1.380       .  A
C3076      C3077   1.408       .  A
C3076      O3082   1.326       .  A
C3077      C3078   1.409       .  A
C3077      H3086   1.081       .  S
C3078      C3081   1.366       .  A
O3079      C3080   1.331       .  A
C3080      C3081   1.395       .  A
C3081      H3087   1.082       .  S
O3082      C3083   1.333       .  A
C3083      C3084   1.391       .  A
C3084      H3088   1.082       .  S
C3089      C3094   1.382       .  A
C3089      C3090   1.398       .  A
C3089      O3095   1.318       .  A
C3090      C3091   1.399       .  A
C3090      H3101   1.082       .  S
C3091      C3100   1.352       .  A
C3091      C3092   1.381       .  A
C3092      C3093   1.402       .  A
C3092      O3098   1.320       .  A
C3093      C3094   1.403       .  A
C3093      H3102   1.082       .  S
C3094      C3097   1.357       .  A
O3095      C3096   1.327       .  A
C3096      C3097   1.392       .  A
C3097      H3103   1.083       .  S
O3098      C3099   1.330       .  A
C3099      C3100   1.389       .  A
C3100      H3104   1.082       .  S
C3105      C3110   1.380       .  A
C3105      C3106   1.407       .  A
C3105      O3111   1.319       .  A
C3106      C3107   1.404       .  A
C3106      H3117   1.082       .  S
C3107      C3116   1.367       .  A
C3107      C3108   1.381       .  A
C3108      C3109   1.401       .  A
C3108      O3114   1.314       .  A
C3109      C3110   1.398       .  A
C3109      H3118   1.082       .  S
C3110      C3113   1.360       .  A
O3111      C3112   1.332       .  A
C3112      C3113   1.388       .  A
C3113      H3119   1.082       .  S
O3114      C3115   1.329       .  A
C3115      C3116   1.391       .  A
C3116      H3120   1.082       .  S
C3121      C3126   1.381       .  A
C3121      C3122   1.403       .  A
C3121      O3127   1.320       .  A
C3122      C3123   1.402       .  A
C3122      H3133   1.082       .  S
C3123      C3132   1.360       .  A
C3123      C3124   1.380       .  A
C3124      C3125   1.407       .  A
C3124      O3130   1.324       .  A
C3125      C3126   1.408       .  A
C3125      H3134   1.082       .  S
C3126      C3129   1.366       .  A
O3127      C3128   1.331       .  A
C3128      C3129   1.393       .  A
C3129      H3135   1.082       .  S
O3130      C3131   1.332       .  A
C3131      C3132   1.389       .  A
C3132      H3136   1.082       .  S
C3137      C3142   1.381       .  A
C3137      C3138   1.405       .  A
C3137      O3143   1.323       .  A
C3138      C3139   1.406       .  A
C3138      H3149   1.082       .  S
C3139      C3148   1.362       .  A
C3139      C3140   1.381       .  A
C3140      C3141   1.397       .  A
C3140      O3146   1.316       .  A
C3141      C3142   1.398       .  A
C3141      H3150   1.083       .  S
C3142      C3145   1.352       .  A
O3143      C3144   1.332       .  A
C3144      C3145   1.389       .  A
C3145      H3151   1.083       .  S
O3146      C3147   1.328       .  A
C3147      C3148   1.393       .  A
C3148      H3152   1.082       .  S
C3153      C3158   1.380       .  A
C3153      C3154   1.404       .  A
C3153      O3159   1.320       .  A
C3154      C3155   1.403       .  A
C3154      H3165   1.083       .  S
C3155      C3164   1.363       .  A
C3155      C3156   1.380       .  A
C3156      C3157   1.406       .  A
C3156      O3162   1.320       .  A
C3157      C3158   1.405       .  A
C3157      H3166   1.083       .  S
C3158      C3161   1.364       .  A
O3159      C3160   1.331       .  A
C3160      C3161   1.393       .  A
C3161      H3167   1.083       .  S
O3162      C3163   1.333       .  A
C3163      C3164   1.390       .  A
C3164      H3168   1.082       .  S
C3169      C3174   1.380       .  A
C3169      C3170   1.405       .  A
C3169      O3175   1.318       .  A
C3170      C3171   1.403       .  A
C3170      H3181   1.082       .  S
C3171      C3180   1.364       .  A
C3171      C3172   1.380       .  A
C3172      C3173   1.404       .  A
C3172      O3178   1.317       .  A
C3173      C3174   1.402       .  A
C3173      H3182   1.082       .  S
C3174      C3177   1.364       .  A
O3175      C3176   1.332       .  A
C3176      C3177   1.391       .  A
C3177      H3183   1.082       .  S
O3178      C3179   1.331       .  A
C3179      C3180   1.391       .  A
C3180      H3184   1.082       .  S
C3185      C3190   1.380       .  A
C3185      C3186   1.405       .  A
C3185      O3191   1.324       .  A
C3186      C3187   1.406       .  A
C3186      H3197   1.082   1_545  S
C3187      C3196   1.361   1_545  A
C3187      C3188   1.380       .  A
C3188      C3189   1.405       .  A
C3188      O3194   1.324       .  A
C3189      C3190   1.406       .  A
C3189      H3198   1.082       .  S
C3190      C3193   1.361       .  A
O3191      C3192   1.332       .  A
C3192      C3193   1.393       .  A
C3193      H3199   1.082       .  S
O3194      C3195   1.332       .  A
C3195      C3196   1.393   1_545  A
C3196      H3200   1.082       .  S
C3201      C3206   1.381       .  A
C3201      C3202   1.400       .  A
C3201      O3207   1.318       .  A
C3202      C3203   1.400       .  A
C3202      H3213   1.083       .  S
C3203      C3212   1.356       .  A
C3203      C3204   1.381       .  A
C3204      C3205   1.406       .  A
C3204      O3210   1.324       .  A
C3205      C3206   1.407       .  A
C3205      H3214   1.083       .  S
C3206      C3209   1.364       .  A
O3207      C3208   1.329       .  A
C3208      C3209   1.393       .  A
C3209      H3215   1.083       .  S
O3210      C3211   1.332       .  A
C3211      C3212   1.390       .  A
C3212      H3216   1.083       .  S
C3217      C3222   1.381       .  A
C3217      C3218   1.402       .  A
C3217      O3223   1.320       .  A
C3218      C3219   1.403       .  A
C3218      H3229   1.082       .  S
C3219      C3228   1.359       .  A
C3219      C3220   1.381       .  A
C3220      C3221   1.401       .  A
C3220      O3226   1.319       .  A
C3221      C3222   1.401       .  A
C3221      H3230   1.082       .  S
C3222      C3225   1.357       .  A
O3223      C3224   1.330       .  A
C3224      C3225   1.390       .  A
C3225      H3231   1.083       .  S
O3226      C3227   1.329       .  A
C3227      C3228   1.392       .  A
C3228      H3232   1.083       .  S
C3233      C3238   1.380       .  A
C3233      C3234   1.406       .  A
C3233      O3239   1.320       .  A
C3234      C3235   1.404       .  A
C3234      H3245   1.083       .  S
C3235      C3244   1.366       .  A
C3235      C3236   1.380       .  A
C3236      C3237   1.408       .  A
C3236      O3242   1.322       .  A
C3237      C3238   1.406       .  A
C3237      H3246   1.083       .  S
C3238      C3241   1.369       .  A
O3239      C3240   1.332       .  A
C3240      C3241   1.394       .  A
C3241      H3247   1.083       .  S
O3242      C3243   1.334       .  A
C3243      C3244   1.392       .  A
C3244      H3248   1.083       .  S
C3249      C3254   1.381       .  A
C3249      C3250   1.401       .  A
C3249      O3255   1.320       .  A
C3250      C3251   1.401       .  A
C3250      H3261   1.081       .  S
C3251      C3260   1.357       .  A
C3251      C3252   1.380       .  A
C3252      C3253   1.405       .  A
C3252      O3258   1.323       .  A
C3253      C3254   1.406       .  A
C3253      H3262   1.081       .  S
C3254      C3257   1.362       .  A
O3255      C3256   1.329       .  A
C3256      C3257   1.393       .  A
C3257      H3263   1.082       .  S
O3258      C3259   1.332       .  A
C3259      C3260   1.390       .  A
C3260      H3264   1.082       .  S
C3265      C3270   1.380       .  A
C3265      C3266   1.403       .  A
C3265      O3271   1.315       .  A
C3266      C3267   1.400       .  A
C3266      H3277   1.081       .  S
C3267      C3276   1.363       .  A
C3267      C3268   1.379       .  A
C3268      C3269   1.411       .  A
C3268      O3274   1.322       .  A
C3269      C3270   1.409       .  A
C3269      H3278   1.081       .  S
C3270      C3273   1.374       .  A
O3271      C3272   1.330       .  A
C3272      C3273   1.395       .  A
C3273      H3279   1.082       .  S
O3274      C3275   1.334       .  A
C3275      C3276   1.389       .  A
C3276      H3280   1.082       .  S
C3281      C3286   1.380       .  A
C3281      C3282   1.407       .  A
C3281      O3287   1.320       .  A
C3282      C3283   1.405       .  A
C3282      H3293   1.082       .  S
C3283      C3292   1.368       .  A
C3283      C3284   1.380       .  A
C3284      C3285   1.401       .  A
C3284      O3290   1.314       .  A
C3285      C3286   1.399       .  A
C3285      H3294   1.082       .  S
C3286      C3289   1.360       .  A
O3287      C3288   1.332       .  A
C3288      C3289   1.388       .  A
C3289      H3295   1.082       .  S
O3290      C3291   1.329       .  A
C3291      C3292   1.392       .  A
C3292      H3296   1.082       .  S
C3297      C3302   1.380       .  A
C3297      C3298   1.408       .  A
C3297      O3303   1.320       .  A
C3298      C3299   1.406       .  A
C3298      H3309   1.082       .  S
C3299      C3308   1.368       .  A
C3299      C3300   1.380       .  A
C3300      C3301   1.400       .  A
C3300      O3306   1.313       .  A
C3301      C3302   1.398       .  A
C3301      H3310   1.082       .  S
C3302      C3305   1.361       .  A
O3303      C3304   1.334       .  A
C3304      C3305   1.388       .  A
C3305      H3311   1.082       .  S
O3306      C3307   1.328       .  A
C3307      C3308   1.393       .  A
C3308      H3312   1.082       .  S
C3313      C3318   1.379       .  A
C3313      C3314   1.408       .  A
C3313      O3319   1.320   1_545  A
C3314      C3315   1.406       .  A
C3314      H3325   1.082   1_545  S
C3315      C3324   1.370       .  A
C3315      C3316   1.379       .  A
C3316      C3317   1.407       .  A
C3316      O3322   1.319       .  A
C3317      C3318   1.405       .  A
C3317      H3326   1.082       .  S
C3318      C3321   1.369       .  A
O3319      C3320   1.334   1_565  A
C3320      C3321   1.393       .  A
C3321      H3327   1.082       .  S
O3322      C3323   1.333       .  A
C3323      C3324   1.393       .  A
C3324      H3328   1.082       .  S
C3329      C3334   1.380       .  A
C3329      C3330   1.401       .  A
C3329      O3335   1.314       .  A
C3330      C3331   1.399       .  A
C3330      H3341   1.083       .  S
C3331      C3340   1.361       .  A
C3331      C3332   1.380       .  A
C3332      C3333   1.411       .  A
C3332      O3338   1.323       .  A
C3333      C3334   1.409       .  A
C3333      H3342   1.083       .  S
C3334      C3337   1.373       .  A
O3335      C3336   1.329       .  A
C3336      C3337   1.394       .  A
C3337      H3343   1.082       .  S
O3338      C3339   1.335       .  A
C3339      C3340   1.389       .  A
C3340      H3344   1.083       .  S
C3345      C3350   1.381       .  A
C3345      C3346   1.401       .  A
C3345      O3351   1.320       .  A
C3346      C3347   1.402       .  A
C3346      H3357   1.081       .  S
C3347      C3356   1.356       .  A
C3347      C3348   1.382       .  A
C3348      C3349   1.397       .  A
C3348      O3354   1.317       .  A
C3349      C3350   1.398       .  A
C3349      H3358   1.081       .  S
C3350      C3353   1.352       .  A
O3351      C3352   1.329       .  A
C3352      C3353   1.390       .  A
C3353      H3359   1.082       .  S
O3354      C3355   1.327       .  A
C3355      C3356   1.391       .  A
C3356      H3360   1.082       .  S
C3361      C3366   1.381       .  A
C3361      C3362   1.405       .  A
C3361      O3367   1.324       .  A
C3362      C3363   1.407       .  A
C3362      H3373   1.082       .  S
C3363      C3372   1.363       .  A
C3363      C3364   1.381       .  A
C3364      C3365   1.400       .  A
C3364      O3370   1.319       .  A
C3365      C3366   1.400       .  A
C3365      H3374   1.082       .  S
C3366      C3369   1.355       .  A
O3367      C3368   1.331       .  A
C3368      C3369   1.389       .  A
C3369      H3375   1.083       .  S
O3370      C3371   1.329       .  A
C3371      C3372   1.393       .  A
C3372      H3376   1.082       .  S
C3377      C3382   1.380       .  A
C3377      C3378   1.409       .  A
C3377      O3383   1.324       .  A
C3378      C3379   1.408       .  A
C3378      H3389   1.082       .  S
C3379      C3388   1.368       .  A
C3379      C3380   1.380       .  A
C3380      C3381   1.402       .  A
C3380      O3386   1.317       .  A
C3381      C3382   1.401       .  A
C3381      H3390   1.082       .  S
C3382      C3385   1.360       .  A
O3383      C3384   1.333       .  A
C3384      C3385   1.388       .  A
C3385      H3391   1.082       .  S
O3386      C3387   1.330       .  A
C3387      C3388   1.393       .  A
C3388      H3392   1.082       .  S
C3393      C3398   1.380       .  A
C3393      C3394   1.402       .  A
C3393      O3399   1.315       .  A
C3394      C3395   1.400       .  A
C3394      H3405   1.081       .  S
C3395      C3404   1.362       .  A
C3395      C3396   1.380       .  A
C3396      C3397   1.404       .  A
C3396      O3402   1.317       .  A
C3397      C3398   1.402       .  A
C3397      H3406   1.081       .  S
C3398      C3401   1.364       .  A
O3399      C3400   1.330       .  A
C3400      C3401   1.391       .  A
C3401      H3407   1.082       .  S
O3402      C3403   1.331       .  A
C3403      C3404   1.390       .  A
C3404      H3408   1.082       .  S
C3409      C3414   1.380       .  A
C3409      C3410   1.404       .  A
C3409      O3415   1.316       .  A
C3410      C3411   1.401       .  A
C3410      H3421   1.082       .  S
C3411      C3420   1.365       .  A
C3411      C3412   1.380       .  A
C3412      C3413   1.406       .  A
C3412      O3418   1.318       .  A
C3413      C3414   1.403       .  A
C3413      H3422   1.082       .  S
C3414      C3417   1.367       .  A
O3415      C3416   1.331       .  A
C3416      C3417   1.391       .  A
C3417      H3423   1.082       .  S
O3418      C3419   1.332       .  A
C3419      C3420   1.391       .  A
C3420      H3424   1.082       .  S
C3425      C3430   1.380       .  A
C3425      C3426   1.410       .  A
C3425      O3431   1.322       .  A
C3426      C3427   1.408       .  A
C3426      H3437   1.082       .  S
C3427      C3436   1.372       .  A
C3427      C3428   1.380       .  A
C3428      C3429   1.399       .  A
C3428      O3434   1.312       .  A
C3429      C3430   1.397       .  A
C3429      H3438   1.082       .  S
C3430      C3433   1.358       .  A
O3431      C3432   1.333       .  A
C3432      C3433   1.386       .  A
C3433      H3439   1.083       .  S
O3434      C3435   1.329       .  A
C3435      C3436   1.395       .  A
C3436      H3440   1.082       .  S
C3441      C3446   1.381       .  A
C3441      C3442   1.401       .  A
C3441      O3447   1.321       .  A
C3442      C3443   1.402       .  A
C3442      H3453   1.082       .  S
C3443      C3452   1.356       .  A
C3443      C3444   1.381       .  A
C3444      C3445   1.404       .  A
C3444      O3450   1.323       .  A
C3445      C3446   1.405       .  A
C3445      H3454   1.082       .  S
C3446      C3449   1.360       .  A
O3447      C3448   1.330       .  A
C3448      C3449   1.393       .  A
C3449      H3455   1.082       .  S
O3450      C3451   1.331       .  A
C3451      C3452   1.391       .  A
C3452      H3456   1.082       .  S
C3457      C3462   1.380       .  A
C3457      C3458   1.404       .  A
C3457      O3463   1.322       .  A
C3458      C3459   1.405       .  A
C3458      H3469   1.082       .  S
C3459      C3468   1.362       .  A
C3459      C3460   1.380       .  A
C3460      C3461   1.407       .  A
C3460      O3466   1.324       .  A
C3461      C3462   1.407       .  A
C3461      H3470   1.082       .  S
C3462      C3465   1.365       .  A
O3463      C3464   1.332       .  A
C3464      C3465   1.395       .  A
C3465      H3471   1.082       .  S
O3466      C3467   1.333       .  A
C3467      C3468   1.393       .  A
C3468      H3472   1.082       .  S
C3473      C3478   1.380       .  A
C3473      C3474   1.409       .  A
C3473      O3479   1.322       .  A
C3474      C3475   1.407       .  A
C3474      H3485   1.082       .  S
C3475      C3484   1.370       .  A
C3475      C3476   1.380       .  A
C3476      C3477   1.401       .  A
C3476      O3482   1.315       .  A
C3477      C3478   1.399       .  A
C3477      H3486   1.082       .  S
C3478      C3481   1.361       .  A
O3479      C3480   1.334       .  A
C3480      C3481   1.389       .  A
C3481      H3487   1.082       .  S
O3482      C3483   1.330       .  A
C3483      C3484   1.392       .  A
C3484      H3488   1.082       .  S
C3489      C3494   1.381       .  A
C3489      C3490   1.401       .  A
C3489      O3495   1.319       .  A
C3490      C3491   1.401       .  A
C3490      H3501   1.081       .  S
C3491      C3500   1.356       .  A
C3491      C3492   1.381       .  A
C3492      C3493   1.404       .  A
C3492      O3498   1.322       .  A
C3493      C3494   1.405       .  A
C3493      H3502   1.081       .  S
C3494      C3497   1.361       .  A
O3495      C3496   1.329       .  A
C3496      C3497   1.392       .  A
C3497      H3503   1.082       .  S
O3498      C3499   1.331       .  A
C3499      C3500   1.391       .  A
C3500      H3504   1.082       .  S
C3505      C3510   1.380       .  A
C3505      C3506   1.409       .  A
C3505      O3511   1.321       .  A
C3506      C3507   1.407       .  A
C3506      H3517   1.081       .  S
C3507      C3516   1.371       .  A
C3507      C3508   1.380       .  A
C3508      C3509   1.402       .  A
C3508      O3514   1.314       .  A
C3509      C3510   1.400       .  A
C3509      H3518   1.081       .  S
C3510      C3513   1.362       .  A
O3511      C3512   1.334       .  A
C3512      C3513   1.389       .  A
C3513      H3519   1.082       .  S
O3514      C3515   1.329       .  A
C3515      C3516   1.393       .  A
C3516      H3520   1.082       .  S
C3521      C3526   1.381       .  A
C3521      C3522   1.405       .  A
C3521      O3527   1.316       .  A
C3522      C3523   1.402       .  A
C3522      H3533   1.082       .  S
C3523      C3532   1.367       .  A
C3523      C3524   1.381       .  A
C3524      C3525   1.399       .  A
C3524      O3530   1.310       .  A
C3525      C3526   1.396       .  A
C3525      H3534   1.082       .  S
C3526      C3529   1.359       .  A
O3527      C3528   1.331       .  A
C3528      C3529   1.387       .  A
C3529      H3535   1.082       .  S
O3530      C3531   1.328       .  A
C3531      C3532   1.391       .  A
C3532      H3536   1.082       .  S
C3537      C3542   1.380       .  A
C3537      C3538   1.402       .  A
C3537      O3543   1.314       .  A
C3538      C3539   1.400       .  A
C3538      H3549   1.082       .  S
C3539      C3548   1.361       .  A
C3539      C3540   1.380       .  A
C3540      C3541   1.405       .  A
C3540      O3546   1.319       .  A
C3541      C3542   1.403       .  A
C3541      H3550   1.082       .  S
C3542      C3545   1.367       .  A
O3543      C3544   1.330       .  A
C3544      C3545   1.390       .  A
C3545      H3551   1.082       .  S
O3546      C3547   1.331       .  A
C3547      C3548   1.389       .  A
C3548      H3552   1.083       .  S
C3553      C3558   1.381       .  A
C3553      C3554   1.400       .  A
C3553      O3559   1.318       .  A
C3554      C3555   1.400       .  A
C3554      H3565   1.082       .  S
C3555      C3564   1.356       .  A
C3555      C3556   1.381       .  A
C3556      C3557   1.403       .  A
C3556      O3562   1.321       .  A
C3557      C3558   1.404       .  A
C3557      H3566   1.082       .  S
C3558      C3561   1.360       .  A
O3559      C3560   1.329       .  A
C3560      C3561   1.392       .  A
C3561      H3567   1.082       .  S
O3562      C3563   1.330       .  A
C3563      C3564   1.390       .  A
C3564      H3568   1.082       .  S
C3569      C3574   1.380       .  A
C3569      C3570   1.406       .  A
C3569      O3575   1.324       .  A
C3570      C3571   1.406       .  A
C3570      H3581   1.081       .  S
C3571      C3580   1.364       .  A
C3571      C3572   1.380       .  A
C3572      C3573   1.406       .  A
C3572      O3578   1.323       .  A
C3573      C3574   1.406       .  A
C3573      H3582   1.082       .  S
C3574      C3577   1.362       .  A
O3575      C3576   1.332       .  A
C3576      C3577   1.394       .  A
C3577      H3583   1.082       .  S
O3578      C3579   1.333       .  A
C3579      C3580   1.393       .  A
C3580      H3584   1.082       .  S
C3585      C3590   1.380       .  A
C3585      C3586   1.405       .  A
C3585      O3591   1.321       .  A
C3586      C3587   1.404       .  A
C3586      H3597   1.082       .  S
C3587      C3596   1.364       .  A
C3587      C3588   1.380       .  A
C3588      C3589   1.408       .  A
C3588      O3594   1.323       .  A
C3589      C3590   1.407       .  A
C3589      H3598   1.083       .  S
C3590      C3593   1.366       .  A
O3591      C3592   1.331       .  A
C3592      C3593   1.393       .  A
C3593      H3599   1.083       .  S
O3594      C3595   1.333       .  A
C3595      C3596   1.392       .  A
C3596      H3600   1.082       .  S
C3601      C3606   1.381       .  A
C3601      C3602   1.398       .  A
C3601      O3607   1.317       .  A
C3602      C3603   1.399       .  A
C3602      H3613   1.083       .  S
C3603      C3612   1.355       .  A
C3603      C3604   1.380       .  A
C3604      C3605   1.409       .  A
C3604      O3610   1.326       .  A
C3605      C3606   1.409       .  A
C3605      H3614   1.083       .  S
C3606      C3609   1.367       .  A
O3607      C3608   1.327       .  A
C3608      C3609   1.395       .  A
C3609      H3615   1.083       .  S
O3610      C3611   1.333       .  A
C3611      C3612   1.389       .  A
C3612      H3616   1.083       .  S
C3617      C3622   1.381       .  A
C3617      C3618   1.401       .  A
C3617      O3623   1.319       .  A
C3618      C3619   1.402       .  A
C3618      H3629   1.082       .  S
C3619      C3628   1.359       .  A
C3619      C3620   1.381       .  A
C3620      C3621   1.401       .  A
C3620      O3626   1.319       .  A
C3621      C3622   1.401       .  A
C3621      H3630   1.082       .  S
C3622      C3625   1.358       .  A
O3623      C3624   1.329       .  A
C3624      C3625   1.390       .  A
C3625      H3631   1.083       .  S
O3626      C3627   1.330       .  A
C3627      C3628   1.391       .  A
C3628      H3632   1.083       .  S
C3633      C3638   1.380       .  A
C3633      C3634   1.406       .  A
C3633      O3639   1.319       .  A
C3634      C3635   1.404       .  A
C3634      H3645   1.081       .  S
C3635      C3644   1.366       .  A
C3635      C3636   1.380       .  A
C3636      C3637   1.402       .  A
C3636      O3642   1.316       .  A
C3637      C3638   1.401       .  A
C3637      H3646   1.081       .  S
C3638      C3641   1.362       .  A
O3639      C3640   1.332       .  A
C3640      C3641   1.390       .  A
C3641      H3647   1.082       .  S
O3642      C3643   1.330       .  A
C3643      C3644   1.392       .  A
C3644      H3648   1.082       .  S
C3649      C3654   1.380       .  A
C3649      C3650   1.407       .  A
C3649      O3655   1.317       .  A
C3650      C3651   1.404       .  A
C3650      H3661   1.082       .  S
C3651      C3660   1.369       .  A
C3651      C3652   1.380       .  A
C3652      C3653   1.405       .  A
C3652      O3658   1.316       .  A
C3653      C3654   1.402       .  A
C3653      H3662   1.082       .  S
C3654      C3657   1.367       .  A
O3655      C3656   1.332       .  A
C3656      C3657   1.392       .  A
C3657      H3663   1.082       .  S
O3658      C3659   1.331       .  A
C3659      C3660   1.393       .  A
C3660      H3664   1.082       .  S
C3665      C3670   1.381       .  A
C3665      C3666   1.407       .  A
C3665      O3671   1.326       .  A
C3666      C3667   1.408       .  A
C3666      H3677   1.082       .  S
C3667      C3676   1.364       .  A
C3667      C3668   1.381       .  A
C3668      C3669   1.397       .  A
C3668      O3674   1.317       .  A
C3669      C3670   1.398       .  A
C3669      H3678   1.082       .  S
C3670      C3673   1.352       .  A
O3671      C3672   1.333       .  A
C3672      C3673   1.387       .  A
C3673      H3679   1.082       .  S
O3674      C3675   1.327       .  A
C3675      C3676   1.394       .  A
C3676      H3680   1.082       .  S
C3681      C3686   1.381       .  A
C3681      C3682   1.402       .  A
C3681      O3687   1.315       .  A
C3682      C3683   1.399       .  A
C3682      H3693   1.082       .  S
C3683      C3692   1.361       .  A
C3683      C3684   1.381       .  A
C3684      C3685   1.402       .  A
C3684      O3690   1.315       .  A
C3685      C3686   1.400       .  A
C3685      H3694   1.082       .  S
C3686      C3689   1.363       .  A
O3687      C3688   1.330       .  A
C3688      C3689   1.390       .  A
C3689      H3695   1.082       .  S
O3690      C3691   1.330       .  A
C3691      C3692   1.389       .  A
C3692      H3696   1.082       .  S
C3697      C3702   1.380       .  A
C3697      C3698   1.408       .  A
C3697      O3703   1.326       .  A
C3698      C3699   1.409       .  A
C3698      H3709   1.082       .  S
C3699      C3708   1.366       .  A
C3699      C3700   1.380       .  A
C3700      C3701   1.407       .  A
C3700      O3706   1.324       .  A
C3701      C3702   1.407       .  A
C3701      H3710   1.082       .  S
C3702      C3705   1.365       .  A
O3703      C3704   1.334       .  A
C3704      C3705   1.395       .  A
C3705      H3711   1.083       .  S
O3706      C3707   1.333       .  A
C3707      C3708   1.395       .  A
C3708      H3712   1.082       .  S
C3713      C3718   1.380       .  A
C3713      C3714   1.410       .  A
C3713      O3719   1.323       .  A
C3714      C3715   1.408       .  A
C3714      H3725   1.083       .  S
C3715      C3724   1.372       .  A
C3715      C3716   1.380       .  A
C3716      C3717   1.399       .  A
C3716      O3722   1.312       .  A
C3717      C3718   1.397       .  A
C3717      H3726   1.083       .  S
C3718      C3721   1.358       .  A
O3719      C3720   1.334       .  A
C3720      C3721   1.387       .  A
C3721      H3727   1.083       .  S
O3722      C3723   1.328       .  A
C3723      C3724   1.393       .  A
C3724      H3728   1.082       .  S
C3729      C3734   1.381       .  A
C3729      C3730   1.403       .  A
C3729      O3735   1.321       .  A
C3730      C3731   1.404       .  A
C3730      H3741   1.082       .  S
C3731      C3740   1.359       .  A
C3731      C3732   1.381       .  A
C3732      C3733   1.401       .  A
C3732      O3738   1.319       .  A
C3733      C3734   1.402       .  A
C3733      H3742   1.081       .  S
C3734      C3737   1.357       .  A
O3735      C3736   1.331       .  A
C3736      C3737   1.391       .  A
C3737      H3743   1.082       .  S
O3738      C3739   1.329       .  A
C3739      C3740   1.392       .  A
C3740      H3744   1.082       .  S
C3745      C3750   1.380       .  A
C3745      C3746   1.406       .  A
C3745      O3751   1.324       .  A
C3746      C3747   1.407       .  A
C3746      H3757   1.082       .  S
C3747      C3756   1.363       .  A
C3747      C3748   1.380       .  A
C3748      C3749   1.405       .  A
C3748      O3754   1.323       .  A
C3749      C3750   1.405       .  A
C3749      H3758   1.082       .  S
C3750      C3753   1.362       .  A
O3751      C3752   1.333       .  A
C3752      C3753   1.393       .  A
C3753      H3759   1.082       .  S
O3754      C3755   1.332       .  A
C3755      C3756   1.394       .  A
C3756      H3760   1.082       .  S
C3761      C3766   1.380       .  A
C3761      C3762   1.411       .  A
C3761      O3767   1.324       .  A
C3762      C3763   1.409       .  A
C3762      H3773   1.082       .  S
C3763      C3772   1.372       .  A
C3763      C3764   1.380       .  A
C3764      C3765   1.402       .  A
C3764      O3770   1.315       .  A
C3765      C3766   1.400       .  A
C3765      H3774   1.082       .  S
C3766      C3769   1.361       .  A
O3767      C3768   1.334       .  A
C3768      C3769   1.389       .  A
C3769      H3775   1.082       .  S
O3770      C3771   1.330       .  A
C3771      C3772   1.394       .  A
C3772      H3776   1.082       .  S
C3777      C3782   1.381       .  A
C3777      C3778   1.402       .  A
C3777      O3783   1.321       .  A
C3778      C3779   1.403       .  A
C3778      H3789   1.083       .  S
C3779      C3788   1.358       .  A
C3779      C3780   1.381       .  A
C3780      C3781   1.402       .  A
C3780      O3786   1.321       .  A
C3781      C3782   1.403       .  A
C3781      H3790   1.083       .  S
C3782      C3785   1.358       .  A
O3783      C3784   1.330       .  A
C3784      C3785   1.392       .  A
C3785      H3791   1.083       .  S
O3786      C3787   1.330       .  A
C3787      C3788   1.391       .  A
C3788      H3792   1.083       .  S
C3793      C3798   1.380       .  A
C3793      C3794   1.411       .  A
C3793      O3799   1.322       .  A
C3794      C3795   1.408       .  A
C3794      H3805   1.082       .  S
C3795      C3804   1.374       .  A
C3795      C3796   1.380       .  A
C3796      C3797   1.402       .  A
C3796      O3802   1.314       .  A
C3797      C3798   1.399       .  A
C3797      H3806   1.082       .  S
C3798      C3801   1.362       .  A
O3799      C3800   1.334       .  A
C3800      C3801   1.389       .  A
C3801      H3807   1.082       .  S
O3802      C3803   1.330       .  A
C3803      C3804   1.394       .  A
C3804      H3808   1.082       .  S
C3809      C3814   1.381       .  A
C3809      C3810   1.402       .  A
C3809      O3815   1.319       .  A
C3810      C3811   1.402       .  A
C3810      H3821   1.083       .  S
C3811      C3820   1.359       .  A
C3811      C3812   1.381       .  A
C3812      C3813   1.403       .  A
C3812      O3818   1.320       .  A
C3813      C3814   1.403       .  A
C3813      H3822   1.083       .  S
C3814      C3817   1.361       .  A
O3815      C3816   1.330       .  A
C3816      C3817   1.392       .  A
C3817      H3823   1.083       .  S
O3818      C3819   1.330       .  A
C3819      C3820   1.390       .  A
C3820      H3824   1.083       .  S
C3825      C3830   1.380       .  A
C3825      C3826   1.405       .  A
C3825      O3831   1.323       .  A
C3826      C3827   1.405       .  A
C3826      H3837   1.082       .  S
C3827      C3836   1.363       .  A
C3827      C3828   1.380       .  A
C3828      C3829   1.407       .  A
C3828      O3834   1.324       .  A
C3829      C3830   1.407       .  A
C3829      H3838   1.082       .  S
C3830      C3833   1.364       .  A
O3831      C3832   1.332       .  A
C3832      C3833   1.394       .  A
C3833      H3839   1.083       .  S
O3834      C3835   1.333       .  A
C3835      C3836   1.393       .  A
C3836      H3840   1.082       .  S
C3841      C3846   1.380       .  A
C3841      C3842   1.401       .  A
C3841      O3847   1.315       .  A
C3842      C3843   1.399       .  A
C3842      H3853   1.083       .  S
C3843      C3852   1.360       .  A
C3843      C3844   1.380       .  A
C3844      C3845   1.411       .  A
C3844      O3850   1.324       .  A
C3845      C3846   1.410       .  A
C3845      H3854   1.083       .  S
C3846      C3849   1.372       .  A
O3847      C3848   1.329       .  A
C3848      C3849   1.395       .  A
C3849      H3855   1.083       .  S
O3850      C3851   1.335       .  A
C3851      C3852   1.388       .  A
C3852      H3856   1.083       .  S
C3857      C3862   1.380       .  A
C3857      C3858   1.408       .  A
C3857      O3863   1.321       .  A
C3858      C3859   1.406       .  A
C3858      H3869   1.082       .  S
C3859      C3868   1.369       .  A
C3859      C3860   1.380       .  A
C3860      C3861   1.403       .  A
C3860      O3866   1.316       .  A
C3861      C3862   1.401       .  A
C3861      H3870   1.082       .  S
C3862      C3865   1.362       .  A
O3863      C3864   1.333       .  A
C3864      C3865   1.390       .  A
C3865      H3871   1.082       .  S
O3866      C3867   1.330       .  A
C3867      C3868   1.392       .  A
C3868      H3872   1.082       .  S
C3873      C3878   1.380       .  A
C3873      C3874   1.405       .  A
C3873      O3879   1.323       .  A
C3874      C3875   1.406       .  A
C3874      H3885   1.082       .  S
C3875      C3884   1.362       .  A
C3875      C3876   1.381       .  A
C3876      C3877   1.400       .  A
C3876      O3882   1.318       .  A
C3877      C3878   1.401       .  A
C3877      H3886   1.082       .  S
C3878      C3881   1.356       .  A
O3879      C3880   1.332       .  A
C3880      C3881   1.390       .  A
C3881      H3887   1.082       .  S
O3882      C3883   1.329       .  A
C3883      C3884   1.392       .  A
C3884      H3888   1.082       .  S
C3889      C3894   1.380       .  A
C3889      C3890   1.405       .  A
C3889      O3895   1.319       .  A
C3890      C3891   1.403       .  A
C3890      H3901   1.082       .  S
C3891      C3900   1.364       .  A
C3891      C3892   1.380   1_455  A
C3892      C3893   1.407       .  A
C3892      O3898   1.321       .  A
C3893      C3894   1.406   1_655  A
C3893      H3902   1.082       .  S
C3894      C3897   1.368       .  A
O3895      C3896   1.331       .  A
C3896      C3897   1.393       .  A
C3897      H3903   1.082   1_455  S
O3898      C3899   1.333       .  A
C3899      C3900   1.391   1_655  A
C3900      H3904   1.082       .  S
C3905      C3910   1.381       .  A
C3905      C3906   1.401       .  A
C3905      O3911   1.319       .  A
C3906      C3907   1.401       .  A
C3906      H3917   1.082       .  S
C3907      C3916   1.357       .  A
C3907      C3908   1.381       .  A
C3908      C3909   1.401       .  A
C3908      O3914   1.319       .  A
C3909      C3910   1.401       .  A
C3909      H3918   1.082       .  S
C3910      C3913   1.357       .  A
O3911      C3912   1.329       .  A
C3912      C3913   1.391       .  A
C3913      H3919   1.082       .  S
O3914      C3915   1.329       .  A
C3915      C3916   1.390       .  A
C3916      H3920   1.082       .  S
C3921      C3926   1.380       .  A
C3921      C3922   1.408       .  A
C3921      O3927   1.320       .  A
C3922      C3923   1.406       .  A
C3922      H3933   1.082       .  S
C3923      C3932   1.370       .  A
C3923      C3924   1.380       .  A
C3924      C3925   1.402       .  A
C3924      O3930   1.315       .  A
C3925      C3926   1.400       .  A
C3925      H3934   1.082       .  S
C3926      C3929   1.362       .  A
O3927      C3928   1.332       .  A
C3928      C3929   1.389       .  A
C3929      H3935   1.083       .  S
O3930      C3931   1.330       .  A
C3931      C3932   1.393       .  A
C3932      H3936   1.082       .  S
C3937      C3942   1.380       .  A
C3937      C3938   1.406       .  A
C3937      O3943   1.322       .  A
C3938      C3939   1.406       .  A
C3938      H3949   1.081       .  S
C3939      C3948   1.364       .  A
C3939      C3940   1.381       .  A
C3940      C3941   1.399       .  A
C3940      O3946   1.315       .  A
C3941      C3942   1.399       .  A
C3941      H3950   1.081       .  S
C3942      C3945   1.356       .  A
O3943      C3944   1.332       .  A
C3944      C3945   1.389       .  A
C3945      H3951   1.082       .  S
O3946      C3947   1.328       .  A
C3947      C3948   1.393       .  A
C3948      H3952   1.082       .  S
C3953      C3958   1.380       .  A
C3953      C3954   1.406       .  A
C3953      O3959   1.324       .  A
C3954      C3955   1.406       .  A
C3954      H3965   1.082       .  S
C3955      C3964   1.363       .  A
C3955      C3956   1.380       .  A
C3956      C3957   1.405       .  A
C3956      O3962   1.323       .  A
C3957      C3958   1.405       .  A
C3957      H3966   1.082       .  S
C3958      C3961   1.361       .  A
O3959      C3960   1.333       .  A
C3960      C3961   1.393       .  A
C3961      H3967   1.082       .  S
O3962      C3963   1.332       .  A
C3963      C3964   1.393       .  A
C3964      H3968   1.082       .  S
C3969      C3974   1.380       .  A
C3969      C3970   1.402       .  A
C3969      O3975   1.316       .  A
C3970      C3971   1.400       .  A
C3970      H3981   1.082       .  S
C3971      C3980   1.361       .  A
C3971      C3972   1.380       .  A
C3972      C3973   1.409       .  A
C3972      O3978   1.322       .  A
C3973      C3974   1.407       .  A
C3973      H3982   1.082       .  S
C3974      C3977   1.371       .  A
O3975      C3976   1.330       .  A
C3976      C3977   1.392       .  A
C3977      H3983   1.082       .  S
O3978      C3979   1.334       .  A
C3979      C3980   1.390       .  A
C3980      H3984   1.082       .  S
C3985      C3990   1.381       .  A
C3985      C3986   1.404       .  A
C3985      O3991   1.322       .  A
C3986      C3987   1.405       .  A
C3986      H3997   1.082       .  S
C3987      C3996   1.361       .  A
C3987      C3988   1.381       .  A
C3988      C3989   1.398       .  A
C3988      O3994   1.317       .  A
C3989      C3990   1.399       .  A
C3989      H3998   1.082       .  S
C3990      C3993   1.354       .  A
O3991      C3992   1.331       .  A
C3992      C3993   1.390       .  A
C3993      H3999   1.082       .  S
O3994      C3995   1.328       .  A
C3995      C3996   1.392       .  A
C3996      H4000   1.082       .  S
C4001      C4006   1.380       .  A
C4001      C4002   1.411       .  A
C4001      O4007   1.323       .  A
C4002      C4003   1.409       .  A
C4002      H4013   1.082       .  S
C4003      C4012   1.373       .  A
C4003      C4004   1.380       .  A
C4004      C4005   1.399       .  A
C4004      O4010   1.312       .  A
C4005      C4006   1.397       .  A
C4005      H4014   1.082       .  S
C4006      C4009   1.359       .  A
O4007      C4008   1.334       .  A
C4008      C4009   1.387       .  A
C4009      H4015   1.082       .  S
O4010      C4011   1.329       .  A
C4011      C4012   1.394       .  A
C4012      H4016   1.082       .  S
C4017      C4022   1.380       .  A
C4017      C4018   1.407       .  A
C4017      O4023   1.318       .  A
C4018      C4019   1.404       .  A
C4018      H4029   1.082       .  S
C4019      C4028   1.368       .  A
C4019      C4020   1.380       .  A
C4020      C4021   1.402       .  A
C4020      O4026   1.315       .  A
C4021      C4022   1.400       .  A
C4021      H4030   1.082       .  S
C4022      C4025   1.363       .  A
O4023      C4024   1.332       .  A
C4024      C4025   1.390       .  A
C4025      H4031   1.082       .  S
O4026      C4027   1.330       .  A
C4027      C4028   1.392       .  A
C4028      H4032   1.082       .  S
C4033      C4038   1.380   1_455  A
C4033      C4034   1.403       .  A
C4033      O4039   1.320       .  A
C4034      C4035   1.403       .  A
C4034      H4045   1.082       .  S
C4035      C4044   1.360       .  A
C4035      C4036   1.380       .  A
C4036      C4037   1.405   1_455  A
C4036      O4042   1.322       .  A
C4037      C4038   1.405       .  A
C4037      H4046   1.082       .  S
C4038      C4041   1.362       .  A
O4039      C4040   1.330   1_455  A
C4040      C4041   1.393       .  A
C4041      H4047   1.082       .  S
O4042      C4043   1.332       .  A
C4043      C4044   1.392       .  A
C4044      H4048   1.083       .  S
C4049      C4054   1.380       .  A
C4049      C4050   1.409       .  A
C4049      O4055   1.327       .  A
C4050      C4051   1.410       .  A
C4050      H4061   1.082       .  S
C4051      C4060   1.367       .  A
C4051      C4052   1.381       .  A
C4052      C4053   1.401       .  A
C4052      O4058   1.320       .  A
C4053      C4054   1.402       .  A
C4053      H4062   1.082       .  S
C4054      C4057   1.357       .  A
O4055      C4056   1.334       .  A
C4056      C4057   1.390       .  A
C4057      H4063   1.083       .  S
O4058      C4059   1.330       .  A
C4059      C4060   1.395       .  A
C4060      H4064   1.082       .  S
C4065      C4070   1.382       .  A
C4065      C4066   1.396       .  A
C4065      O4071   1.316       .  A
C4066      C4067   1.397       .  A
C4066      H4077   1.082       .  S
C4067      C4076   1.350       .  A
C4067      C4068   1.381       .  A
C4068      C4069   1.404       .  A
C4068      O4074   1.323       .  A
C4069      C4070   1.405       .  A
C4069      H4078   1.082       .  S
C4070      C4073   1.359       .  A
O4071      C4072   1.327       .  A
C4072      C4073   1.392       .  A
C4073      H4079   1.082       .  S
O4074      C4075   1.331       .  A
C4075      C4076   1.389       .  A
C4076      H4080   1.083       .  S
C4081      C4086   1.380       .  A
C4081      C4082   1.403       .  A
C4081      O4087   1.319       .  A
C4082      C4083   1.402       .  A
C4082      H4093   1.082       .  S
C4083      C4092   1.360       .  A
C4083      C4084   1.380       .  A
C4084      C4085   1.408       .  A
C4084      O4090   1.323       .  A
C4085      C4086   1.407       .  A
C4085      H4094   1.082       .  S
C4086      C4089   1.366       .  A
O4087      C4088   1.330       .  A
C4088      C4089   1.394       .  A
C4089      H4095   1.082       .  S
O4090      C4091   1.333       .  A
C4091      C4092   1.392       .  A
C4092      H4096   1.082       .  S
C4097      C4102   1.381       .  A
C4097      C4098   1.406       .  A
C4097      O4103   1.321       .  A
C4098      C4099   1.406       .  A
C4098      H4109   1.082       .  S
C4099      C4108   1.365       .  A
C4099      C4100   1.381       .  A
C4100      C4101   1.399       .  A
C4100      O4106   1.316       .  A
C4101      C4102   1.398       .  A
C4101      H4110   1.082       .  S
C4102      C4105   1.357       .  A
O4103      C4104   1.332       .  A
C4104      C4105   1.387       .  A
C4105      H4111   1.082       .  S
O4106      C4107   1.328       .  A
C4107      C4108   1.393       .  A
C4108      H4112   1.083       .  S
C4113      C4118   1.381       .  A
C4113      C4114   1.404       .  A
C4113      O4119   1.318       .  A
C4114      C4115   1.402       .  A
C4114      H4125   1.082       .  S
C4115      C4124   1.364       .  A
C4115      C4116   1.381       .  A
C4116      C4117   1.401       .  A
C4116      O4122   1.315       .  A
C4117      C4118   1.399       .  A
C4117      H4126   1.082       .  S
C4118      C4121   1.360       .  A
O4119      C4120   1.330       .  A
C4120      C4121   1.388       .  A
C4121      H4127   1.082       .  S
O4122      C4123   1.330       .  A
C4123      C4124   1.390       .  A
C4124      H4128   1.082       .  S
C4129      C4134   1.381       .  A
C4129      C4130   1.404       .  A
C4129      O4135   1.321       .  A
C4130      C4131   1.404       .  A
C4130      H4141   1.081       .  S
C4131      C4140   1.361       .  A
C4131      C4132   1.381       .  A
C4132      C4133   1.399       .  A
C4132      O4138   1.317       .  A
C4133      C4134   1.399       .  A
C4133      H4142   1.081       .  S
C4134      C4137   1.355       .  A
O4135      C4136   1.331       .  A
C4136      C4137   1.389       .  A
C4137      H4143   1.082       .  S
O4138      C4139   1.328       .  A
C4139      C4140   1.392       .  A
C4140      H4144   1.082       .  S
C4145      C4150   1.380   1_655  A
C4145      C4146   1.406       .  A
C4145      O4151   1.320       .  A
C4146      C4147   1.404   1_655  A
C4146      H4157   1.082       .  S
C4147      C4156   1.365       .  A
C4147      C4148   1.380       .  A
C4148      C4149   1.406       .  A
C4148      O4154   1.320       .  A
C4149      C4150   1.405       .  A
C4149      H4158   1.082       .  S
C4150      C4153   1.366       .  A
O4151      C4152   1.332       .  A
C4152      C4153   1.392   1_655  A
C4153      H4159   1.082       .  S
O4154      C4155   1.333       .  A
C4155      C4156   1.392       .  A
C4156      H4160   1.082   1_455  S
C4161      C4166   1.381       .  A
C4161      C4162   1.402       .  A
C4161      O4167   1.321       .  A
C4162      C4163   1.403       .  A
C4162      H4173   1.082       .  S
C4163      C4172   1.357       .  A
C4163      C4164   1.381       .  A
C4164      C4165   1.400       .  A
C4164      O4170   1.320       .  A
C4165      C4166   1.401       .  A
C4165      H4174   1.082       .  S
C4166      C4169   1.356       .  A
O4167      C4168   1.331       .  A
C4168      C4169   1.390       .  A
C4169      H4175   1.082       .  S
O4170      C4171   1.329       .  A
C4171      C4172   1.392       .  A
C4172      H4176   1.083       .  S
C4177      C4182   1.380       .  A
C4177      C4178   1.406       .  A
C4177      O4183   1.319       .  A
C4178      C4179   1.404       .  A
C4178      H4189   1.082       .  S
C4179      C4188   1.366       .  A
C4179      C4180   1.380       .  A
C4180      C4181   1.407       .  A
C4180      O4186   1.320       .  A
C4181      C4182   1.405       .  A
C4181      H4190   1.082       .  S
C4182      C4185   1.367       .  A
O4183      C4184   1.332       .  A
C4184      C4185   1.393       .  A
C4185      H4191   1.082       .  S
O4186      C4187   1.333       .  A
C4187      C4188   1.392       .  A
C4188      H4192   1.082       .  S
C4193      C4198   1.381       .  A
C4193      C4194   1.407       .  A
C4193      O4199   1.325       .  A
C4194      C4195   1.408       .  A
C4194      H4205   1.081       .  S
C4195      C4204   1.365       .  A
C4195      C4196   1.381       .  A
C4196      C4197   1.397       .  A
C4196      O4202   1.316       .  A
C4197      C4198   1.398       .  A
C4197      H4206   1.081       .  S
C4198      C4201   1.352       .  A
O4199      C4200   1.332       .  A
C4200      C4201   1.387       .  A
C4201      H4207   1.082       .  S
O4202      C4203   1.328       .  A
C4203      C4204   1.394       .  A
C4204      H4208   1.082       .  S
C4209      C4214   1.381       .  A
C4209      C4210   1.401       .  A
C4209      O4215   1.320       .  A
C4210      C4211   1.402       .  A
C4210      H4221   1.083       .  S
C4211      C4220   1.356       .  A
C4211      C4212   1.381       .  A
C4212      C4213   1.405       .  A
C4212      O4218   1.324       .  A
C4213      C4214   1.406       .  A
C4213      H4222   1.083       .  S
C4214      C4217   1.361       .  A
O4215      C4216   1.330       .  A
C4216      C4217   1.393       .  A
C4217      H4223   1.083       .  S
O4218      C4219   1.332       .  A
C4219      C4220   1.391       .  A
C4220      H4224   1.083       .  S
C4225      C4230   1.380   1_554  A
C4225      C4226   1.405       .  A
C4225      O4231   1.324       .  A
C4226      C4227   1.406       .  A
C4226      H4237   1.083       .  S
C4227      C4236   1.361       .  A
C4227      C4228   1.380       .  A
C4228      C4229   1.408   1_554  A
C4228      O4234   1.326       .  A
C4229      C4230   1.409       .  A
C4229      H4238   1.083       .  S
C4230      C4233   1.365       .  A
O4231      C4232   1.332   1_554  A
C4232      C4233   1.395       .  A
C4233      H4239   1.083       .  S
O4234      C4235   1.334       .  A
C4235      C4236   1.393       .  A
C4236      H4240   1.083       .  S
C4241      C4246   1.380       .  A
C4241      C4242   1.409       .  A
C4241      O4247   1.322       .  A
C4242      C4243   1.407       .  A
C4242      H4253   1.083       .  S
C4243      C4252   1.370       .  A
C4243      C4244   1.380       .  A
C4244      C4245   1.402       .  A
C4244      O4250   1.316       .  A
C4245      C4246   1.400       .  A
C4245      H4254   1.083       .  S
C4246      C4249   1.362       .  A
O4247      C4248   1.333       .  A
C4248      C4249   1.389       .  A
C4249      H4255   1.083       .  S
O4250      C4251   1.330       .  A
C4251      C4252   1.393       .  A
C4252      H4256   1.082       .  S
C4257      C4262   1.381       .  A
C4257      C4258   1.401       .  A
C4257      O4263   1.313       .  A
C4258      C4259   1.399       .  A
C4258      H4269   1.083       .  S
C4259      C4268   1.362       .  A
C4259      C4260   1.381       .  A
C4260      C4261   1.402       .  A
C4260      O4266   1.314       .  A
C4261      C4262   1.400       .  A
C4261      H4270   1.083       .  S
C4262      C4265   1.363       .  A
O4263      C4264   1.329       .  A
C4264      C4265   1.390       .  A
C4265      H4271   1.083       .  S
O4266      C4267   1.330       .  A
C4267      C4268   1.389       .  A
C4268      H4272   1.083       .  S
C4273      C4278   1.380   1_556  A
C4273      C4274   1.408       .  A
C4273      O4279   1.322       .  A
C4274      C4275   1.407   1_556  A
C4274      H4285   1.083       .  S
C4275      C4284   1.369       .  A
C4275      C4276   1.380       .  A
C4276      C4277   1.402       .  A
C4276      O4282   1.317       .  A
C4277      C4278   1.401       .  A
C4277      H4286   1.083       .  S
C4278      C4281   1.362       .  A
O4279      C4280   1.334       .  A
C4280      C4281   1.390   1_556  A
C4281      H4287   1.083       .  S
O4282      C4283   1.330       .  A
C4283      C4284   1.394       .  A
C4284      H4288   1.083       .  S
C4289      C4294   1.381       .  A
C4289      C4290   1.407       .  A
C4289      O4295   1.324       .  A
C4290      C4291   1.407       .  A
C4290      H4301   1.082       .  S
C4291      C4300   1.365       .  A
C4291      C4292   1.381       .  A
C4292      C4293   1.400       .  A
C4292      O4298   1.318       .  A
C4293      C4294   1.400       .  A
C4293      H4302   1.082       .  S
C4294      C4297   1.355       .  A
O4295      C4296   1.332       .  A
C4296      C4297   1.390       .  A
C4297      H4303   1.083       .  S
O4298      C4299   1.329       .  A
C4299      C4300   1.393       .  A
C4300      H4304   1.082       .  S
C4305      C4310   1.381       .  A
C4305      C4306   1.401       .  A
C4305      O4311   1.320       .  A
C4306      C4307   1.402       .  A
C4306      H4317   1.081       .  S
C4307      C4316   1.357       .  A
C4307      C4308   1.380       .  A
C4308      C4309   1.405       .  A
C4308      O4314   1.323       .  A
C4309      C4310   1.406       .  A
C4309      H4318   1.081       .  S
C4310      C4313   1.361       .  A
O4311      C4312   1.330       .  A
C4312      C4313   1.393       .  A
C4313      H4319   1.082       .  S
O4314      C4315   1.332       .  A
C4315      C4316   1.391       .  A
C4316      H4320   1.082       .  S
C4321      C4326   1.380   1_655  A
C4321      C4322   1.405       .  A
C4321      O4327   1.318       .  A
C4322      C4323   1.403   1_655  A
C4322      H4333   1.082       .  S
C4323      C4332   1.365       .  A
C4323      C4324   1.380       .  A
C4324      C4325   1.407       .  A
C4324      O4330   1.321       .  A
C4325      C4326   1.405       .  A
C4325      H4334   1.082       .  S
C4326      C4329   1.367       .  A
O4327      C4328   1.331       .  A
C4328      C4329   1.393   1_655  A
C4329      H4335   1.082       .  S
O4330      C4331   1.333       .  A
C4331      C4332   1.392       .  A
C4332      H4336   1.082   1_455  S
C4337      C4342   1.380       .  A
C4337      C4338   1.402       .  A
C4337      O4343   1.315       .  A
C4338      C4339   1.399       .  A
C4338      H4349   1.082       .  S
C4339      C4348   1.360       .  A
C4339      C4340   1.380       .  A
C4340      C4341   1.408       .  A
C4340      O4346   1.321       .  A
C4341      C4342   1.406       .  A
C4341      H4350   1.082       .  S
C4342      C4345   1.370       .  A
O4343      C4344   1.330       .  A
C4344      C4345   1.393       .  A
C4345      H4351   1.082       .  S
O4346      C4347   1.332       .  A
C4347      C4348   1.388       .  A
C4348      H4352   1.082       .  S
C4353      C4358   1.381       .  A
C4353      C4354   1.399       .  A
C4353      O4359   1.316       .  A
C4354      C4355   1.399       .  A
C4354      H4365   1.082       .  S
C4355      C4364   1.356       .  A
C4355      C4356   1.381       .  A
C4356      C4357   1.401       .  A
C4356      O4362   1.318       .  A
C4357      C4358   1.401       .  A
C4357      H4366   1.082       .  S
C4358      C4361   1.358       .  A
O4359      C4360   1.328       .  A
C4360      C4361   1.390       .  A
C4361      H4367   1.083       .  S
O4362      C4363   1.330       .  A
C4363      C4364   1.389       .  A
C4364      H4368   1.082       .  S
C4369      C4374   1.379       .  A
C4369      C4370   1.409       .  A
C4369      O4375   1.322       .  A
C4370      C4371   1.407       .  A
C4370      H4381   1.082       .  S
C4371      C4380   1.370       .  A
C4371      C4372   1.380       .  A
C4372      C4373   1.405       .  A
C4372      O4378   1.319       .  A
C4373      C4374   1.403       .  A
C4373      H4382   1.082       .  S
C4374      C4377   1.366       .  A
O4375      C4376   1.334       .  A
C4376      C4377   1.392       .  A
C4377      H4383   1.082       .  S
O4378      C4379   1.332       .  A
C4379      C4380   1.395       .  A
C4380      H4384   1.082       .  S
C4385      C4390   1.381       .  A
C4385      C4386   1.399       .  A
C4385      O4391   1.312       .  A
C4386      C4387   1.397       .  A
C4386      H4397   1.083       .  S
C4387      C4396   1.358       .  A
C4387      C4388   1.380       .  A
C4388      C4389   1.409       .  A
C4388      O4394   1.321       .  A
C4389      C4390   1.407       .  A
C4389      H4398   1.083       .  S
C4390      C4393   1.371       .  A
O4391      C4392   1.327       .  A
C4392      C4393   1.393       .  A
C4393      H4399   1.083       .  S
O4394      C4395   1.333       .  A
C4395      C4396   1.387       .  A
C4396      H4400   1.083       .  S
C4401      C4406   1.380       .  A
C4401      C4402   1.402       .  A
C4401      O4407   1.314       .  A
C4402      C4403   1.400       .  A
C4402      H4413   1.083       .  S
C4403      C4412   1.362       .  A
C4403      C4404   1.380       .  A
C4404      C4405   1.410       .  A
C4404      O4410   1.322       .  A
C4405      C4406   1.407       .  A
C4405      H4414   1.082       .  S
C4406      C4409   1.372       .  A
O4407      C4408   1.330       .  A
C4408      C4409   1.393       .  A
C4409      H4415   1.082       .  S
O4410      C4411   1.334       .  A
C4411      C4412   1.390       .  A
C4412      H4416   1.083       .  S
