geometry optimzed in LAMMPS
_audit_creation_date              2020-12-01 
_audit_creation_method            'lammps2cif' 
_symmetry_space_group_name_H-M    'P1' 
_symmetry_Int_Tables_number       1 
_symmetry_cell_setting            triclinic 
loop_ 
_symmetry_equiv_pos_as_xyz 
  x,y,z 
_cell_length_a                    48.810171 
_cell_length_b                    49.07698250165173 
_cell_length_c                    48.74364594944607 
_cell_angle_alpha                 90.10679448253926 
_cell_angle_beta                  89.7833198211767 
_cell_angle_gamma                 120.0321828594593 
loop_ 
_atom_site_label 
_atom_site_type_symbol 
_atom_site_fract_x 
_atom_site_fract_y 
_atom_site_fract_z 
_atom_site_charge 
O1          O  0.10446713  0.10841669  0.06045830    -0.57500
C2          C  0.15950273  0.09826316  0.11814219     0.75100
O3          O  0.17235068  0.08383433  0.02814865    -0.58600
C4          C  0.10418513  0.11152537  0.03463458     0.75100
C5          C  0.20039046  0.17984890  0.05844884     0.77500
Cd6        Cd  0.15678626  0.11292797  0.06168291     1.37500
O7          O  0.13476841  0.09599484  0.10755447    -0.57500
O8          O  0.17280971  0.16816669  0.06830987    -0.56300
C9          C  0.14996986  0.05692212  0.03540814     0.77500
O10         O  0.20867200  0.16035337  0.05035150    -0.58700
O11         O  0.18367051  0.10864490  0.10277609    -0.57100
O12         O  0.12856565  0.11579650  0.02177237    -0.57100
O13         O  0.13304764  0.05662004  0.05519499    -0.56300
O14         O  0.12995203  0.03339160  0.24062937    -0.57500
C15         C  0.09565585  0.49004091  0.31289447     0.75100
O16         O  0.20172503  0.04738166  0.30161961    -0.58600
C17         C  0.15419827  0.05647380  0.23014716     0.75100
C18         C  0.14132130  0.09117433  0.31155117     0.77500
Cd19       Cd  0.14954653  0.04175778  0.28765525     1.37500
O20         O  0.09704302  0.49457409  0.28723790    -0.57500
O21         O  0.12674930  0.07589962  0.29046742    -0.56300
C22         C  0.19426035  0.01973075  0.29401222     0.77500
O23         O  0.16185822  0.08513492  0.32121319    -0.58700
O24         O  0.11906643  0.00995977  0.32673748    -0.57100
O25         O  0.17711836  0.07214698  0.24634207    -0.57100
O26         O  0.16692249  0.00353859  0.28392073    -0.56300
O27         O  0.01773142  0.13714267  0.44238897    -0.57500
C28         C  0.47809873  0.09875552  0.36730655     0.75100
O29         O  0.03490023  0.20563718  0.38099847    -0.58600
C30         C  0.04551778  0.15646182  0.45039144     0.75100
C31         C  0.07763661  0.14639822  0.36714760     0.77500
Cd32       Cd  0.02823737  0.15303305  0.39360447     1.37500
O33         O  0.48360984  0.09860646  0.39266071    -0.57500
O34         O  0.06197899  0.13054112  0.38768859    -0.56300
C35         C  0.00712639  0.19848254  0.38855646     0.77500
O36         O  0.07131648  0.16707360  0.35852286    -0.58700
O37         O  0.99563711  0.12419644  0.35468032    -0.57100
O38         O  0.06464113  0.17484513  0.43244848    -0.57100
O39         O  0.99066146  0.17147936  0.39893415    -0.56300
O40         O  0.10405592  0.10563914  0.61690602    -0.57500
C41         C  0.08909930  0.15798357  0.56061128     0.75100
O42         O  0.08300703  0.17361473  0.65258489    -0.58600
C43         C  0.10650591  0.10484859  0.64273648     0.75100
C44         C  0.17646214  0.20429405  0.61740044     0.77500
Cd45       Cd  0.10901918  0.15809598  0.61618428     1.37500
O46         O  0.09721274  0.13852052  0.56866546    -0.57500
O47         O  0.16497234  0.17710210  0.60726786    -0.56300
C48         C  0.05533231  0.15209429  0.64600155     0.77500
O49         O  0.15636283  0.21136696  0.62648334    -0.58700
O50         O  0.09077107  0.17793254  0.57803823    -0.57100
O51         O  0.11061318  0.12879224  0.65592391    -0.57100
O52         O  0.05324268  0.13514223  0.62568655    -0.56300
O53         O  0.49404046  0.10784971  0.95579235    -0.57500
C54         C  0.42938931  0.09457987  0.89910260     0.75100
O55         O  0.40523169  0.08477922  0.99268326    -0.58600
C56         C  0.49714090  0.10995096  0.98165416     0.75100
C57         C  0.46879715  0.18008926  0.95577099     0.77500
Cd58       Cd  0.44583787  0.11254189  0.95532545     1.37500
O59         O  0.45249144  0.09444460  0.91066677    -0.57500
O60         O  0.48464155  0.16783748  0.94737252    -0.56300
C61         C  0.39467139  0.05772306  0.98199783     0.77500
O62         O  0.44087869  0.16077687  0.96396716    -0.58700
O63         O  0.41433546  0.10430285  0.91357508    -0.57100
O64         O  0.47630648  0.11279508  0.99469124    -0.57100
O65         O  0.40611919  0.05720834  0.95886866    -0.56300
O66         O  0.38598736  0.49564207  0.72827127    -0.57500
C67         C  0.39287070  0.05599844  0.78658637     0.75100
O68         O  0.41218819  0.08734423  0.69576971    -0.58600
C69         C  0.38647248  0.49387514  0.70238703     0.75100
C70         C  0.31472641  0.02227586  0.72286017     0.77500
Cd71       Cd  0.38179569  0.04331665  0.72911845     1.37500
O72         O  0.39674509  0.03505040  0.77498069    -0.57500
O73         O  0.32499205  0.00536267  0.73289473    -0.56300
C74         C  0.43898289  0.09476155  0.70591827     0.77500
O75         O  0.33576229  0.04972195  0.71546430    -0.58700
O76         O  0.38316937  0.07055267  0.77166785    -0.57100
O77         O  0.38456975  0.01501096  0.68914719    -0.57100
O78         O  0.43840231  0.08019884  0.72739383    -0.56300
O79         O  0.34550381  0.45158741  0.24009726    -0.57500
C80         C  0.37602018  0.99465231  0.30945299     0.75100
O81         O  0.26742179  0.43638652  0.29362606    -0.58600
C82         C  0.32130446  0.43058306  0.22784557     0.75100
C83         C  0.32534781  0.39374595  0.31257531     0.77500
Cd84       Cd  0.32117801  0.44363385  0.28510731     1.37500
O85         O  0.37365460  0.99143826  0.28363553    -0.57500
O86         O  0.33719085  0.40393737  0.28916945    -0.56300
C87         C  0.27614433  0.46534583  0.29104196     0.77500
O88         O  0.30821441  0.40412621  0.32233557    -0.58700
O89         O  0.35330860  0.47389948  0.32347331    -0.57100
O90         O  0.29636526  0.41590846  0.24221307    -0.57100
O91         O  0.30512287  0.48345432  0.28584496    -0.56300
O92         O  0.35139171  0.40156321  0.10437633    -0.57500
C93         C  0.38448780  0.38599610  0.03271149     0.75100
O94         O  0.27842195  0.33423354  0.04639697    -0.58600
C95         C  0.32526829  0.39541305  0.11526085     0.75100
C96         C  0.33238590  0.43679073  0.03355237     0.77500
Cd97       Cd  0.32957656  0.38225211  0.05877745     1.37500
O98         O  0.38269841  0.38796800  0.05848815    -0.57500
O99         O  0.34527565  0.43747924  0.05615078    -0.56300
C100        C  0.28587136  0.31516984  0.05699340     0.77500
O101        O  0.31500622  0.40969592  0.02320079    -0.58700
O102        O  0.36085770  0.38254169  0.01922257    -0.57100
O103        O  0.30103544  0.38265968  0.10003517    -0.57100
O104        O  0.31267814  0.32744478  0.06830107    -0.56300
O105        O  0.49334355  0.38756559  0.95081014    -0.57500
C106        C  0.06018538  0.39963756  0.89509937     0.75100
O107        O  0.08241023  0.41051122  0.98835547    -0.58600
C108        C  0.48896986  0.38488701  0.97652705     0.75100
C109        C  0.01907454  0.31594409  0.95400144     0.77500
Cd110      Cd  0.04145367  0.38321702  0.95149353     1.37500
O111        O  0.03627106  0.39982289  0.90512692    -0.57500
O112        O  0.00285789  0.32742642  0.94485465    -0.56300
C113        C  0.09051334  0.43799792  0.97985504     0.77500
O114        O  0.04695784  0.33577156  0.96171157    -0.58700
O115        O  0.07450961  0.39064505  0.91105806    -0.57100
O116        O  0.00906879  0.38167713  0.99035315    -0.57100
O117        O  0.07781201  0.43945538  0.95780090    -0.56300
O118        O  0.10683170  0.99935750  0.72358962    -0.57500
C119        C  0.09757765  0.43773651  0.78240903     0.75100
O120        O  0.08179685  0.40624791  0.69203899    -0.58600
C121        C  0.10885039  0.00184400  0.69766872     0.75100
C122        C  0.17819526  0.47172314  0.72045213     0.77500
Cd123      Cd  0.11109147  0.45133605  0.72510150     1.37500
O124        O  0.09412339  0.45877991  0.77060938    -0.57500
O125        O  0.16792034  0.49006568  0.72651538    -0.56300
C126        C  0.05467839  0.39971608  0.70090216     0.77500
O127        O  0.15723315  0.44330299  0.71591555    -0.58700
O128        O  0.10905316  0.42425662  0.76810774    -0.57100
O129        O  0.11145862  0.48079044  0.68491265    -0.57100
O130        O  0.05453924  0.41561873  0.72122273    -0.56300
O131        O  0.39676557  0.35647519  0.57497410    -0.57500
C132        C  0.38428016  0.38932471  0.64565407     0.75100
O133        O  0.33196891  0.28222852  0.62945543    -0.58600
C134        C  0.39558216  0.33230704  0.56447038     0.75100
C135        C  0.43443032  0.33864319  0.64829692     0.77500
Cd136      Cd  0.38017116  0.33462543  0.62080802     1.37500
O137        O  0.38602807  0.38723018  0.61987804    -0.57500
O138        O  0.43626048  0.35344579  0.62657151    -0.56300
C139        C  0.31245320  0.29108746  0.62289332     0.77500
O140        O  0.40670166  0.31947879  0.65689898    -0.58700
O141        O  0.38076616  0.36606243  0.65963427    -0.57100
O142        O  0.38625851  0.30861461  0.58004626    -0.57100
O143        O  0.32436793  0.31951881  0.61578148    -0.56300
O144        O  0.44847093  0.35123304  0.43910710    -0.57500
C145        C  0.49039661  0.38509171  0.36767070     0.75100
O146        O  0.43159321  0.27829628  0.38033471    -0.58600
C147        C  0.42463778  0.32799243  0.44992428     0.75100
C148        C  0.38895272  0.33818699  0.36718470     0.77500
Cd149      Cd  0.43848613  0.33106688  0.39240113     1.37500
O150        O  0.48616199  0.38304090  0.39338436    -0.57500
O151        O  0.40593591  0.35511020  0.38670278    -0.56300
C152        C  0.46007018  0.28622696  0.38582472     0.77500
O153        O  0.39361156  0.31604357  0.35964979    -0.58700
O154        O  0.47032896  0.36194830  0.35365523    -0.57100
O155        O  0.40715414  0.30560855  0.43397271    -0.57100
O156        O  0.47739170  0.31408416  0.39408524    -0.56300
C157        C  0.39162600  0.30224514  0.52215686    -0.08800
C158        C  0.40413634  0.33148172  0.53546191     0.07400
C159        C  0.42438426  0.35913109  0.52065971    -0.02600
C160        C  0.43077771  0.35711102  0.49304422    -0.07000
C161        C  0.41754200  0.32800193  0.47946991     0.06500
C162        C  0.39801929  0.30024345  0.49444419    -0.02100
Br163      Br  0.38020784  0.25883211  0.47891794    -0.01800
H164        H  0.37641658  0.28073864  0.53327808     0.10400
H165        H  0.44610786  0.37867487  0.48204103     0.08400
Br166      Br  0.44544961  0.40041732  0.53679319    -0.02200
C167        C  0.49637721  0.36504382  0.70386138    -0.08800
C168        C  0.02420489  0.37629074  0.68808493     0.07400
C169        C  0.02129286  0.36900520  0.65981622    -0.02600
C170        C  0.49126856  0.35399874  0.64761944    -0.07000
C171        C  0.46373462  0.34554888  0.66304293     0.06500
C172        C  0.46640663  0.34985431  0.69169973    -0.02100
Br173      Br  0.43071693  0.33992530  0.71488575    -0.01800
H174        H  0.99796238  0.36995823  0.72566209     0.10400
H175        H  0.48959419  0.35061940  0.62558193     0.08400
Br176      Br  0.05710363  0.38181166  0.63601019    -0.02200
C177        C  0.05061527  0.41450131  0.84879272    -0.08800
C178        C  0.07059319  0.40958826  0.86632180     0.07400
C179        C  0.09998551  0.41480932  0.85588279    -0.02600
C180        C  0.10824192  0.42394889  0.82852054    -0.07000
C181        C  0.08826242  0.42888551  0.81126051     0.06500
C182        C  0.05919646  0.42411091  0.82159038    -0.02100
Br183      Br  0.02926846  0.42816956  0.79898397    -0.01800
H184        H  0.02794835  0.41056889  0.85614543     0.10400
H185        H  0.13070432  0.42769693  0.82075558     0.08400
Br186      Br  0.13084022  0.41125947  0.87757921    -0.02200
C187        C  0.46453428  0.39255154  0.01836163    -0.08800
C188        C  0.46224638  0.38578851  0.99016708     0.07400
C189        C  0.43442658  0.37954745  0.97617980    -0.02600
C190        C  0.41002170  0.38059070  0.99040004    -0.07000
C191        C  0.41209466  0.38697655  0.01872383     0.06500
C192        C  0.43992962  0.39303677  0.03271496    -0.02100
Br193      Br  0.44651026  0.40192480  0.07130547    -0.01800
H194        H  0.48568134  0.39741451  0.02949605     0.10400
H195        H  0.38883124  0.37546676  0.97922135     0.08400
Br196      Br  0.42680069  0.36698448  0.93833018    -0.02200
C197        C  0.35518176  0.36265846  0.36907374    -0.08800
C198        C  0.36603469  0.34549945  0.35389100     0.07400
C199        C  0.35821471  0.33991378  0.32579589    -0.02600
C200        C  0.34228434  0.35365207  0.31317984    -0.07000
C201        C  0.33369538  0.37289479  0.32798748     0.06500
C202        C  0.33917443  0.37625333  0.35652503    -0.02100
Br203      Br  0.32942822  0.40244380  0.37909852    -0.01800
H204        H  0.36070393  0.36703698  0.39070791     0.10400
H205        H  0.33825834  0.35079129  0.29125315     0.08400
Br206      Br  0.37170009  0.31709107  0.30267515    -0.02200
C207        C  0.34847596  0.43214986  0.15422949    -0.08800
C208        C  0.32359274  0.40388149  0.14400312     0.07400
C209        C  0.29766018  0.38497305  0.16120521    -0.02600
C210        C  0.29723438  0.39444397  0.18820512    -0.07000
C211        C  0.32222841  0.42273018  0.19860103     0.06500
C212        C  0.34793347  0.44192151  0.18106124    -0.02100
Br213      Br  0.38263332  0.48230642  0.19148990    -0.01800
H214        H  0.36826942  0.44714498  0.14102508     0.10400
H215        H  0.27742694  0.37920434  0.20127682     0.08400
Br216      Br  0.26315380  0.34507343  0.14968895    -0.02200
C217        C  0.38049497  0.46354633  0.65996633    -0.08800
C218        C  0.38815525  0.46818298  0.68799820     0.07400
C219        C  0.39619766  0.44765371  0.70139017    -0.02600
C220        C  0.39503868  0.42248653  0.68697779    -0.07000
C221        C  0.38640980  0.41729097  0.65918433     0.06500
C222        C  0.37951338  0.43848011  0.64552295    -0.02100
Br223      Br  0.36664281  0.43388581  0.60779728    -0.01800
H224        H  0.37436140  0.47905898  0.64923462     0.10400
H225        H  0.40105718  0.40685850  0.69766826     0.08400
Br226      Br  0.40986777  0.45265296  0.73891463    -0.02200
C227        C  0.25916968  0.47729155  0.72371948    -0.08800
C228        C  0.27992619  0.00985299  0.72026321     0.07400
C229        C  0.26662953  0.02922712  0.71548279    -0.02600
C230        C  0.23363011  0.01604588  0.71501471    -0.07000
C231        C  0.21293516  0.48360828  0.71906072     0.06500
C232        C  0.22619114  0.46412066  0.72314694    -0.02100
Br233      Br  0.20101281  0.41972821  0.72999236    -0.01800
H234        H  0.26861465  0.46180385  0.72734448     0.10400
H235        H  0.22406954  0.03150445  0.71176634     0.08400
Br236      Br  0.29163910  0.07400507  0.71073946    -0.02200
C237        C  0.46185207  0.22720791  0.95894080    -0.08800
C238        C  0.48228353  0.21500664  0.95573649     0.07400
C239        C  0.01513974  0.23662088  0.95233586    -0.02600
C240        C  0.02653201  0.26916445  0.95245054    -0.07000
C241        C  0.00600035  0.28123312  0.95521236     0.06500
C242        C  0.47322494  0.25973998  0.95844453    -0.02100
Br243      Br  0.44255320  0.27300469  0.96330703    -0.01800
H244        H  0.43669102  0.21132575  0.96157435     0.10400
H245        H  0.05166952  0.28518012  0.94978918     0.08400
Br246      Br  0.04640403  0.22407259  0.94761863    -0.02200
C247        C  0.35174609  0.49414569  0.03604364    -0.08800
C248        C  0.33984694  0.46678820  0.01984011     0.07400
C249        C  0.34127789  0.47007886  0.99103362    -0.02600
C250        C  0.35689510  0.00017907  0.97930846    -0.07000
C251        C  0.37164127  0.02757619  0.99557454     0.06500
C252        C  0.36764553  0.02427122  0.02432722    -0.02100
Br253      Br  0.38629141  0.05927371  0.04920394    -0.01800
H254        H  0.35061916  0.49216838  0.05820766     0.10400
H255        H  0.35923396  0.00204347  0.95717960     0.08400
Br256      Br  0.32622635  0.43496243  0.96634280    -0.02200
C257        C  0.39257271  0.08224029  0.85975936    -0.08800
C258        C  0.42003982  0.08365210  0.87039559     0.07400
C259        C  0.43730554  0.07402842  0.85340921    -0.02600
C260        C  0.42735124  0.06420396  0.82650893    -0.07000
C261        C  0.40061137  0.06391751  0.81578512     0.06500
C262        C  0.38278875  0.07246544  0.83280833    -0.02100
Br263      Br  0.34393446  0.06948466  0.82084363    -0.01800
H264        H  0.37844138  0.08867351  0.87246560     0.10400
H265        H  0.44118740  0.05757338  0.81358710     0.08400
Br266      Br  0.47506678  0.07413190  0.86471372    -0.02200
C267        C  0.22299277  0.25806038  0.62552069    -0.08800
C268        C  0.21141334  0.22628055  0.61873310     0.07400
C269        C  0.23368780  0.21618527  0.61396171    -0.02600
C270        C  0.26619102  0.23754032  0.61608547    -0.07000
C271        C  0.27765572  0.26924786  0.62253396     0.06500
C272        C  0.25560921  0.27946142  0.62734760    -0.02100
Br273      Br  0.26828658  0.32187890  0.63794311    -0.01800
H274        H  0.20659261  0.26641396  0.62948301     0.10400
H275        H  0.28272133  0.22932426  0.61216980     0.08400
Br276      Br  0.22225254  0.17363677  0.60494715    -0.02200
C277        C  0.02719252  0.14347008  0.69048690    -0.08800
C278        C  0.02666537  0.14518959  0.66181639     0.07400
C279        C  0.49751226  0.13520344  0.64858460    -0.02600
C280        C  0.46935573  0.12154876  0.66379025    -0.07000
C281        C  0.46943704  0.11684168  0.69220033     0.06500
C282        C  0.49899000  0.12925803  0.70573222    -0.02100
Br283      Br  0.50282655  0.12644636  0.74472681    -0.01800
H284        H  0.04944246  0.15114067  0.70092696     0.10400
H285        H  0.44714271  0.11257893  0.65296658     0.08400
Br286      Br  0.49467777  0.13847164  0.60954994    -0.02200
C287        C  0.09330860  0.04295532  0.69587284    -0.08800
C288        C  0.10796040  0.02783049  0.68310969     0.07400
C289        C  0.12135245  0.03790638  0.65670561    -0.02600
C290        C  0.11978494  0.06244564  0.64375180    -0.07000
C291        C  0.10560584  0.07779658  0.65668047     0.06500
C292        C  0.09197424  0.06768804  0.68292469    -0.02100
Br293      Br  0.06970421  0.08546917  0.70143165    -0.01800
H294        H  0.08250634  0.03529856  0.71592726     0.10400
H295        H  0.13065426  0.07026376  0.62373289     0.08400
Br296      Br  0.14416912  0.02105520  0.63771445    -0.02200
C297        C  0.01576759  0.25275498  0.38265799    -0.08800
C298        C  0.99452118  0.22041895  0.38584016     0.07400
C299        C  0.46165608  0.20989562  0.38679686    -0.02600
C300        C  0.45105008  0.23162705  0.38570522    -0.07000
C301        C  0.47238017  0.26403975  0.38383506     0.06500
C302        C  0.00513287  0.27449500  0.38169161    -0.02100
Br303      Br  0.03684191  0.31794552  0.37670933    -0.01800
H304        H  0.04095324  0.26134117  0.38141160     0.10400
H305        H  0.42587570  0.22308233  0.38706756     0.08400
Br306      Br  0.42944629  0.16628506  0.38906128    -0.02200
C307        C  0.08449212  0.15712674  0.48300341    -0.08800
C308        C  0.05587399  0.15675269  0.47884166     0.07400
C309        C  0.03800632  0.15636648  0.50177871    -0.02600
C310        C  0.04944342  0.15726717  0.52830978    -0.07000
C311        C  0.07794630  0.15732198  0.53240476     0.06500
C312        C  0.09528638  0.15679486  0.50946256    -0.02100
Br313      Br  0.13446713  0.15688025  0.51306524    -0.01800
H314        H  0.09830667  0.15715775  0.46553108     0.10400
H315        H  0.03581012  0.15747032  0.54582689     0.08400
Br316      Br  0.99867286  0.15594252  0.49801786    -0.02200
C317        C  0.40916786  0.01722166  0.35065440    -0.08800
C318        C  0.40348888  0.02100336  0.32309452     0.07400
C319        C  0.42311495  0.05011256  0.31008956    -0.02600
C320        C  0.44736597  0.07467763  0.32490779    -0.07000
C321        C  0.45264494  0.07118495  0.35273138     0.06500
C322        C  0.43331049  0.04177245  0.36552591    -0.02100
Br323      Br  0.43770966  0.03281576  0.40308685    -0.01800
H324        H  0.39448345  0.99493598  0.36091099     0.10400
H325        H  0.46181639  0.09694851  0.31457791     0.08400
Br326      Br  0.41713492  0.05899605  0.27290500    -0.02200
C327        C  0.20276067  0.47396557  0.28993636    -0.08800
C328        C  0.21558434  0.00618682  0.29598410     0.07400
C329        C  0.24818888  0.02413181  0.30212893    -0.02600
C330        C  0.26709251  0.01007082  0.30083755    -0.07000
C331        C  0.25434138  0.47811615  0.29389165     0.06500
C332        C  0.22160435  0.45992717  0.28878470    -0.02100
Br333      Br  0.20123458  0.41649128  0.27796695    -0.01800
H334        H  0.17781122  0.45948746  0.28534686     0.10400
H335        H  0.29214311  0.02442054  0.30511801     0.08400
Br336      Br  0.26897481  0.06795491  0.31167321    -0.02200
C337        C  0.10377662  0.14158615  0.32474354    -0.08800
C338        C  0.10054558  0.13928865  0.35341851     0.07400
C339        C  0.11618061  0.12625292  0.36812983    -0.02600
C340        C  0.13185367  0.11312463  0.35405050    -0.07000
C341        C  0.13233502  0.11256371  0.32530842     0.06500
C342        C  0.11950766  0.12840901  0.31065394    -0.02100
Br343      Br  0.12259211  0.13257173  0.27142403    -0.01800
H344        H  0.09253471  0.15206733  0.31310222     0.10400
H345        H  0.14199163  0.10154450  0.36567841     0.08400
Br346      Br  0.11658776  0.12509003  0.40752552    -0.02200
C347        C  0.02211938  0.41076702  0.32604812    -0.08800
C348        C  0.01732789  0.41259644  0.35429322     0.07400
C349        C  0.03848478  0.44032667  0.36862027    -0.02600
C350        C  0.06360242  0.46508880  0.35458647    -0.07000
C351        C  0.06831228  0.46316821  0.32635881     0.06500
C352        C  0.04720699  0.43551231  0.31206266    -0.02100
Br353      Br  0.05181881  0.42880016  0.27387137    -0.01800
H354        H  0.00644616  0.38969078  0.31464009     0.10400
H355        H  0.07949724  0.48616970  0.36589956     0.08400
Br356      Br  0.53480860  0.44681840  0.40706086    -0.02200
C357        C  0.23171606  0.26825344  0.05360676    -0.08800
C358        C  0.26441005  0.28044567  0.05659237     0.07400
C359        C  0.27575269  0.25906558  0.05948158    -0.02600
C360        C  0.25455376  0.22658038  0.05948348    -0.07000
C361        C  0.22187368  0.21445222  0.05705518     0.06500
C362        C  0.21049031  0.23573367  0.05396097    -0.02100
Br363      Br  0.16647077  0.22218446  0.04886180    -0.01800
H364        H  0.22249152  0.28411929  0.05126684     0.10400
H365        H  0.26371555  0.21066073  0.06183756     0.08400
Br366      Br  0.31986283  0.27204066  0.06261097    -0.02200
C367        C  0.12652999  0.49885600  0.03665751    -0.08800
C368        C  0.14213230  0.02694021  0.02140482     0.07400
C369        C  0.14464389  0.02488813  0.99271798    -0.02600
C370        C  0.12985218  0.49532987  0.97987582    -0.07000
C371        C  0.11219257  0.46735768  0.99495561     0.06500
C372        C  0.11151054  0.46933860  0.02381482    -0.02100
Br373      Br  0.08666221  0.43332133  0.04665853    -0.01800
H374        H  0.12420198  0.99990005  0.05869911     0.10400
H375        H  0.13052156  0.49434042  0.95768738     0.08400
Br376      Br  0.16391337  0.06133434  0.96945896    -0.02200
C377        C  0.13100928  0.06258917  0.15674144    -0.08800
C378        C  0.15925345  0.08778915  0.14659844     0.07400
C379        C  0.18613512  0.10161986  0.16364534    -0.02600
C380        C  0.18406271  0.09049041  0.19044545    -0.07000
C381        C  0.15559705  0.06548669  0.20084374     0.06500
C382        C  0.12892463  0.05115577  0.18333820    -0.02100
Br383      Br  0.08852453  0.01621585  0.19374671    -0.01800
H384        H  0.11029013  0.05139606  0.14372244     0.10400
H385        H  0.20482632  0.10193073  0.20336995     0.08400
Br386      Br  0.22566938  0.13705794  0.15236299    -0.02200
C387        C  0.05439708  0.11335104  0.03641104    -0.08800
C388        C  0.07683265  0.11047714  0.02051779     0.07400
C389        C  0.07228556  0.10648641  0.99182412    -0.02600
C390        C  0.04614502  0.10619803  0.97981423    -0.07000
C391        C  0.02388409  0.10951410  0.99570318     0.06500
C392        C  0.02814292  0.11277334  0.02449593    -0.02100
Br393      Br  0.99955601  0.11649965  0.04942361    -0.01800
H394        H  0.05730557  0.11624466  0.05844259     0.10400
H395        H  0.04323674  0.10326099  0.95778874     0.08400
Br396      Br  0.09975382  0.10001511  0.96765097    -0.02200
O397        O  0.10446731  0.60841667  0.06045861    -0.57500
C398        C  0.15950305  0.59826307  0.11814223     0.75100
O399        O  0.17235069  0.58383452  0.02814841    -0.58600
C400        C  0.10418518  0.61152517  0.03463487     0.75100
C401        C  0.20039067  0.67984892  0.05844881     0.77500
Cd402      Cd  0.15678651  0.61292802  0.06168302     1.37500
O403        O  0.13476874  0.59599481  0.10755457    -0.57500
O404        O  0.17280985  0.66816673  0.06830969    -0.56300
C405        C  0.14997006  0.55692228  0.03540806     0.77500
O406        O  0.20867230  0.66035339  0.05035171    -0.58700
O407        O  0.18367082  0.60864485  0.10277612    -0.57100
O408        O  0.12856565  0.61579626  0.02177260    -0.57100
O409        O  0.13304812  0.55662015  0.05519517    -0.56300
O410        O  0.12995205  0.53339153  0.24062938    -0.57500
C411        C  0.09565595  0.99004100  0.31289463     0.75100
O412        O  0.20172483  0.54738133  0.30161964    -0.58600
C413        C  0.15419839  0.55647363  0.23014716     0.75100
C414        C  0.14132131  0.59117418  0.31155112     0.77500
Cd415      Cd  0.14954649  0.54175761  0.28765521     1.37500
O416        O  0.09704298  0.99457429  0.28723808    -0.57500
O417        O  0.12674917  0.57589937  0.29046745    -0.56300
C418        C  0.19426007  0.51973037  0.29401236     0.77500
O419        O  0.16185834  0.58513485  0.32121305    -0.58700
O420        O  0.11906621  0.50995976  0.32673739    -0.57100
O421        O  0.17711850  0.57214671  0.24634207    -0.57100
O422        O  0.16692218  0.50353820  0.28392092    -0.56300
O423        O  0.01773146  0.63714222  0.44238888    -0.57500
C424        C  0.47809872  0.59875543  0.36730649     0.75100
O425        O  0.03490015  0.70563699  0.38099854    -0.58600
C426        C  0.04551776  0.65646146  0.45039140     0.75100
C427        C  0.07763672  0.64639807  0.36714762     0.77500
Cd428      Cd  0.02823742  0.65303288  0.39360446     1.37500
O429        O  0.48360983  0.59860638  0.39266066    -0.57500
O430        O  0.06197888  0.63054076  0.38768845    -0.56300
C431        C  0.00712630  0.69848231  0.38855653     0.77500
O432        O  0.07131677  0.66707365  0.35852304    -0.58700
O433        O  0.99563735  0.62419625  0.35468023    -0.57100
O434        O  0.06464109  0.67484494  0.43244852    -0.57100
O435        O  0.99066138  0.67147908  0.39893413    -0.56300
O436        O  0.10405598  0.60563918  0.61690601    -0.57500
C437        C  0.08909918  0.65798338  0.56061129     0.75100
O438        O  0.08300686  0.67361469  0.65258484    -0.58600
C439        C  0.10650562  0.60484847  0.64273649     0.75100
C440        C  0.17646205  0.70429407  0.61740049     0.77500
Cd441      Cd  0.10901905  0.65809594  0.61618429     1.37500
O442        O  0.09721256  0.63852032  0.56866554    -0.57500
O443        O  0.16497227  0.67710212  0.60726791    -0.56300
C444        C  0.05533214  0.65209437  0.64600138     0.77500
O445        O  0.15636272  0.71136695  0.62648338    -0.58700
O446        O  0.09077099  0.67793243  0.57803817    -0.57100
O447        O  0.11061260  0.62879199  0.65592396    -0.57100
O448        O  0.05324252  0.63514236  0.62568635    -0.56300
O449        O  0.49404063  0.60784953  0.95579254    -0.57500
C450        C  0.42938943  0.59457965  0.89910264     0.75100
O451        O  0.40523177  0.58477908  0.99268317    -0.58600
C452        C  0.49714098  0.60995076  0.98165436     0.75100
C453        C  0.46879730  0.68008911  0.95577095     0.77500
Cd454      Cd  0.44583806  0.61254174  0.95532547     1.37500
O455        O  0.45249165  0.59444452  0.91066677    -0.57500
O456        O  0.48464165  0.66783734  0.94737231    -0.56300
C457        C  0.39467156  0.55772292  0.98199778     0.77500
O458        O  0.44087891  0.66077673  0.96396727    -0.58700
O459        O  0.41433549  0.60430250  0.91357516    -0.57100
O460        O  0.47630652  0.61279486  0.99469138    -0.57100
O461        O  0.40611946  0.55720818  0.95886866    -0.56300
O462        O  0.38598703  0.99564202  0.72827116    -0.57500
C463        C  0.39287079  0.55599827  0.78658641     0.75100
O464        O  0.41218801  0.58734413  0.69576953    -0.58600
C465        C  0.38647221  0.99387515  0.70238691     0.75100
C466        C  0.31472643  0.52227572  0.72286003     0.77500
Cd467      Cd  0.38179574  0.54331659  0.72911844     1.37500
O468        O  0.39674530  0.53505034  0.77498064    -0.57500
O469        O  0.32499207  0.50536245  0.73289442    -0.56300
C470        C  0.43898274  0.59476162  0.70591809     0.77500
O471        O  0.33576233  0.54972190  0.71546440    -0.58700
O472        O  0.38316933  0.57055244  0.77166796    -0.57100
O473        O  0.38456994  0.51501089  0.68914728    -0.57100
O474        O  0.43840226  0.58019903  0.72739370    -0.56300
O475        O  0.34550387  0.95158750  0.24009720    -0.57500
C476        C  0.37602004  0.49465223  0.30945306     0.75100
O477        O  0.26742192  0.93638675  0.29362593    -0.58600
C478        C  0.32130449  0.93058320  0.22784549     0.75100
C479        C  0.32534794  0.89374610  0.31257533     0.77500
Cd480      Cd  0.32117811  0.94363397  0.28510725     1.37500
O481        O  0.37365435  0.49143829  0.28363559    -0.57500
O482        O  0.33719095  0.90393750  0.28916945    -0.56300
C483        C  0.27614452  0.96534607  0.29104179     0.77500
O484        O  0.30821453  0.90412636  0.32233557    -0.58700
O485        O  0.35330862  0.97389971  0.32347323    -0.57100
O486        O  0.29636531  0.91590862  0.24221302    -0.57100
O487        O  0.30512308  0.98345451  0.28584480    -0.56300
O488        O  0.35139153  0.90156308  0.10437634    -0.57500
C489        C  0.38448784  0.88599610  0.03271133     0.75100
O490        O  0.27842213  0.83423358  0.04639661    -0.58600
C491        C  0.32526813  0.89541320  0.11526071     0.75100
C492        C  0.33238620  0.93679090  0.03355238     0.77500
Cd493      Cd  0.32957665  0.88225217  0.05877735     1.37500
O494        O  0.38269835  0.88796769  0.05848802    -0.57500
O495        O  0.34527646  0.93747944  0.05615052    -0.56300
C496        C  0.28587145  0.81516990  0.05699324     0.77500
O497        O  0.31500606  0.90969606  0.02320101    -0.58700
O498        O  0.36085786  0.88254202  0.01922241    -0.57100
O499        O  0.30103539  0.88266007  0.10003489    -0.57100
O500        O  0.31267811  0.82744485  0.06830112    -0.56300
O501        O  0.49334325  0.88756483  0.95081004    -0.57500
C502        C  0.06018550  0.89963752  0.89509952     0.75100
O503        O  0.08241028  0.91051100  0.98835569    -0.58600
C504        C  0.48896971  0.88488660  0.97652698     0.75100
C505        C  0.01907478  0.81594394  0.95400160     0.77500
Cd506      Cd  0.04145378  0.88321686  0.95149367     1.37500
O507        O  0.03627126  0.89982295  0.90512713    -0.57500
O508        O  0.00285801  0.82742624  0.94485499    -0.56300
C509        C  0.09051343  0.93799771  0.97985525     0.77500
O510        O  0.04695814  0.83577146  0.96171156    -0.58700
O511        O  0.07450966  0.89064487  0.91105815    -0.57100
O512        O  0.00906895  0.88167728  0.99035319    -0.57100
O513        O  0.07781215  0.93945518  0.95780109    -0.56300
O514        O  0.10683150  0.49935733  0.72358953    -0.57500
C515        C  0.09757762  0.93773646  0.78240917     0.75100
O516        O  0.08179681  0.90624796  0.69203922    -0.58600
C517        C  0.10885015  0.50184386  0.69766863     0.75100
C518        C  0.17819525  0.97172320  0.72045235     0.77500
Cd519      Cd  0.11109150  0.95133614  0.72510167     1.37500
O520        O  0.09412349  0.95877996  0.77060959    -0.57500
O521        O  0.16792034  0.99006569  0.72651581    -0.56300
C522        C  0.05467836  0.89971631  0.70090228     0.77500
O523        O  0.15723315  0.94330310  0.71591556    -0.58700
O524        O  0.10905301  0.92425650  0.76810782    -0.57100
O525        O  0.11145885  0.98079055  0.68491279    -0.57100
O526        O  0.05453923  0.91561909  0.72122276    -0.56300
O527        O  0.39676588  0.85647552  0.57497433    -0.57500
C528        C  0.38428012  0.88932482  0.64565405     0.75100
O529        O  0.33196884  0.78222857  0.62945542    -0.58600
C530        C  0.39558214  0.83230728  0.56447050     0.75100
C531        C  0.43443019  0.83864322  0.64829711     0.77500
Cd532      Cd  0.38017110  0.83462551  0.62080813     1.37500
O533        O  0.38602779  0.88723015  0.61987802    -0.57500
O534        O  0.43626038  0.85344559  0.62657154    -0.56300
C535        C  0.31245313  0.79108755  0.62289343     0.77500
O536        O  0.40670152  0.81947899  0.65689926    -0.58700
O537        O  0.38076638  0.86606267  0.65963431    -0.57100
O538        O  0.38625821  0.80861472  0.58004628    -0.57100
O539        O  0.32436785  0.81951894  0.61578173    -0.56300
O540        O  0.44847080  0.85123315  0.43910720    -0.57500
C541        C  0.49039671  0.88509168  0.36767087     0.75100
O542        O  0.43159317  0.77829620  0.38033508    -0.58600
C543        C  0.42463767  0.82799253  0.44992439     0.75100
C544        C  0.38895275  0.83818700  0.36718479     0.77500
Cd545      Cd  0.43848613  0.83106687  0.39240128     1.37500
O546        O  0.48616196  0.88304093  0.39338451    -0.57500
O547        O  0.40593577  0.85511004  0.38670301    -0.56300
C548        C  0.46007013  0.78622686  0.38582517     0.77500
O549        O  0.39361172  0.81604369  0.35964976    -0.58700
O550        O  0.47032913  0.86194822  0.35365540    -0.57100
O551        O  0.40715410  0.80560859  0.43397285    -0.57100
O552        O  0.47739165  0.81408408  0.39408565    -0.56300
C553        C  0.39162594  0.80224539  0.52215697    -0.08800
C554        C  0.40413626  0.83148197  0.53546200     0.07400
C555        C  0.42438409  0.85913133  0.52065975    -0.02600
C556        C  0.43077748  0.85711121  0.49304425    -0.07000
C557        C  0.41754184  0.82800210  0.47946999     0.06500
C558        C  0.39801918  0.80024364  0.49444431    -0.02100
Br559      Br  0.38020773  0.75883226  0.47891814    -0.01800
H560        H  0.37641656  0.78073887  0.53327823     0.10400
H561        H  0.44610756  0.87867503  0.48204103     0.08400
Br562      Br  0.44544938  0.90041761  0.53679312    -0.02200
C563        C  0.49637705  0.86504427  0.70386164    -0.08800
C564        C  0.02420485  0.87629101  0.68808502     0.07400
C565        C  0.02129285  0.86900547  0.65981630    -0.02600
C566        C  0.49126841  0.85399867  0.64761976    -0.07000
C567        C  0.46373448  0.84554899  0.66304320     0.06500
C568        C  0.46640648  0.84985471  0.69169997    -0.02100
Br569      Br  0.43071679  0.83992601  0.71488590    -0.01800
H570        H  0.99796232  0.86995852  0.72566217     0.10400
H571        H  0.48959405  0.85061913  0.62558228     0.08400
Br572      Br  0.05710367  0.88181203  0.63601031    -0.02200
C573        C  0.05061544  0.91450148  0.84879296    -0.08800
C574        C  0.07059328  0.90958822  0.86632196     0.07400
C575        C  0.09998548  0.91480906  0.85588286    -0.02600
C576        C  0.10824183  0.92394860  0.82852061    -0.07000
C577        C  0.08826242  0.92888544  0.81126065     0.06500
C578        C  0.05919657  0.92411106  0.82159061    -0.02100
Br579      Br  0.02926867  0.92817001  0.79898433    -0.01800
H580        H  0.02794861  0.91056924  0.85614574     0.10400
H581        H  0.13070416  0.92769647  0.82075557     0.08400
Br582      Br  0.13084012  0.91125896  0.87757918    -0.02200
C583        C  0.46453448  0.89255202  0.01836134    -0.08800
C584        C  0.46224623  0.88578813  0.99016696     0.07400
C585        C  0.43442614  0.87954635  0.97617980    -0.02600
C586        C  0.41002130  0.88058972  0.99040001    -0.07000
C587        C  0.41209463  0.88697644  0.01872365     0.06500
C588        C  0.43992990  0.89303742  0.03271464    -0.02100
Br589      Br  0.44651113  0.90192691  0.07130491    -0.01800
H590        H  0.48568182  0.89741561  0.02949566     0.10400
H591        H  0.38883061  0.87546520  0.97922145     0.08400
Br592      Br  0.42679986  0.86698229  0.93833047    -0.02200
C593        C  0.35518183  0.86265854  0.36907377    -0.08800
C594        C  0.36603479  0.84549954  0.35389105     0.07400
C595        C  0.35821488  0.83991395  0.32579591    -0.02600
C596        C  0.34228457  0.85365230  0.31317987    -0.07000
C597        C  0.33369555  0.87289497  0.32798750     0.06500
C598        C  0.33917454  0.87625344  0.35652506    -0.02100
Br599      Br  0.32942820  0.90244379  0.37909859    -0.01800
H600        H  0.36070394  0.86703701  0.39070797     0.10400
H601        H  0.33825861  0.85079155  0.29125316     0.08400
Br602      Br  0.37170024  0.81709124  0.30267517    -0.02200
C603        C  0.34847615  0.93214969  0.15422949    -0.08800
C604        C  0.32359252  0.90388170  0.14400295     0.07400
C605        C  0.29765962  0.88497367  0.16120488    -0.02600
C606        C  0.29723392  0.89444457  0.18820481    -0.07000
C607        C  0.32222838  0.92273038  0.19860092     0.06500
C608        C  0.34793377  0.94192133  0.18106127    -0.02100
Br609      Br  0.38263436  0.98230568  0.19149016    -0.01800
H610        H  0.36826987  0.94714449  0.14102524     0.10400
H611        H  0.27742618  0.87920523  0.20127638     0.08400
Br612      Br  0.26315257  0.84507459  0.14968837    -0.02200
C613        C  0.38049441  0.96354617  0.65996625    -0.08800
C614        C  0.38815499  0.96818303  0.68799806     0.07400
C615        C  0.39619777  0.94765401  0.70138998    -0.02600
C616        C  0.39503886  0.92248686  0.68697763    -0.07000
C617        C  0.38640970  0.91729107  0.65918424     0.06500
C618        C  0.37951290  0.93847997  0.64552290    -0.02100
Br619      Br  0.36664195  0.93388534  0.60779733    -0.01800
H620        H  0.37436057  0.97905862  0.64923460     0.10400
H621        H  0.40105766  0.90685900  0.69766808     0.08400
Br622      Br  0.40986836  0.95265362  0.73891432    -0.02200
C623        C  0.25916969  0.97729163  0.72371947    -0.08800
C624        C  0.27992621  0.50985287  0.72026305     0.07400
C625        C  0.26662957  0.52922698  0.71548246    -0.02600
C626        C  0.23363015  0.51604575  0.71501433    -0.07000
C627        C  0.21293515  0.98360836  0.71906091     0.06500
C628        C  0.22619115  0.96412073  0.72314688    -0.02100
Br629      Br  0.20101283  0.91972816  0.72999180    -0.01800
H630        H  0.26861469  0.96180392  0.72734430     0.10400
H631        H  0.22406958  0.53150432  0.71176580     0.08400
Br632      Br  0.29163916  0.57400492  0.71073900    -0.02200
C633        C  0.46185221  0.72720774  0.95894103    -0.08800
C634        C  0.48228368  0.71500650  0.95573651     0.07400
C635        C  0.01513999  0.73662074  0.95233580    -0.02600
C636        C  0.02653233  0.76916434  0.95245050    -0.07000
C637        C  0.00600062  0.78123297  0.95521250     0.06500
C638        C  0.47322513  0.75973983  0.95844484    -0.02100
Br639      Br  0.44255350  0.77300461  0.96330784    -0.01800
H640        H  0.43669121  0.71132561  0.96157470     0.10400
H641        H  0.05166980  0.78517999  0.94978905     0.08400
Br642      Br  0.04640426  0.72407241  0.94761858    -0.02200
C643        C  0.35174629  0.99414582  0.03604375    -0.08800
C644        C  0.33984711  0.96678834  0.01984019     0.07400
C645        C  0.34127788  0.97007899  0.99103371    -0.02600
C646        C  0.35689522  0.50017893  0.97930839    -0.07000
C647        C  0.37164138  0.52757605  0.99557446     0.06500
C648        C  0.36764551  0.52427109  0.02432713    -0.02100
Br649      Br  0.38629152  0.55927358  0.04920385    -0.01800
H650        H  0.35061947  0.99216850  0.05820776     0.10400
H651        H  0.35923419  0.50204333  0.95717952     0.08400
Br652      Br  0.32622624  0.93496254  0.96634290    -0.02200
C653        C  0.39257255  0.58223956  0.85975954    -0.08800
C654        C  0.42003993  0.58365186  0.87039564     0.07400
C655        C  0.43730594  0.57402867  0.85340912    -0.02600
C656        C  0.42735159  0.56420418  0.82650886    -0.07000
C657        C  0.40061146  0.56391727  0.81578517     0.06500
C658        C  0.38278857  0.57246473  0.83280850    -0.02100
Br659      Br  0.34393400  0.56948339  0.82084396    -0.01800
H660        H  0.37844100  0.58867241  0.87246589     0.10400
H661        H  0.44118798  0.55757397  0.81358691     0.08400
Br662      Br  0.47506769  0.57413302  0.86471338    -0.02200
C663        C  0.22299266  0.75806041  0.62552079    -0.08800
C664        C  0.21141325  0.72628060  0.61873316     0.07400
C665        C  0.23368773  0.71618534  0.61396176    -0.02600
C666        C  0.26619096  0.73754041  0.61608549    -0.07000
C667        C  0.27765564  0.76924793  0.62253405     0.06500
C668        C  0.25560910  0.77946145  0.62734775    -0.02100
Br669      Br  0.26828644  0.82187887  0.63794348    -0.01800
H670        H  0.20659249  0.76641397  0.62948314     0.10400
H671        H  0.28272127  0.72932436  0.61216981     0.08400
Br672      Br  0.22225248  0.67363681  0.60494732    -0.02200
C673        C  0.02719235  0.64347036  0.69048670    -0.08800
C674        C  0.02666519  0.64518973  0.66181618     0.07400
C675        C  0.49751207  0.63520351  0.64858439    -0.02600
C676        C  0.46935555  0.62154882  0.66379004    -0.07000
C677        C  0.46943684  0.61684180  0.69220012     0.06500
C678        C  0.49898980  0.62925824  0.70573202    -0.02100
Br679      Br  0.50282635  0.62644678  0.74472664    -0.01800
H680        H  0.04944228  0.65114101  0.70092676     0.10400
H681        H  0.44714254  0.61257894  0.65296636     0.08400
Br682      Br  0.49467762  0.63847178  0.60954974    -0.02200
C683        C  0.09330816  0.54295503  0.69587276    -0.08800
C684        C  0.10796013  0.52783036  0.68310966     0.07400
C685        C  0.12135242  0.53790645  0.65670569    -0.02600
C686        C  0.11978483  0.56244566  0.64375188    -0.07000
C687        C  0.10560554  0.57779644  0.65668047     0.06500
C688        C  0.09197381  0.56768778  0.68292464    -0.02100
Br689      Br  0.06970378  0.58546888  0.70143165    -0.01800
H690        H  0.08250578  0.53529816  0.71592711     0.10400
H691        H  0.13065431  0.57026391  0.62373302     0.08400
Br692      Br  0.14416968  0.52105574  0.63771479    -0.02200
C693        C  0.01576749  0.75275477  0.38265822    -0.08800
C694        C  0.99452109  0.72041873  0.38584033     0.07400
C695        C  0.46165602  0.70989550  0.38679723    -0.02600
C696        C  0.45105001  0.73162694  0.38570577    -0.07000
C697        C  0.47238011  0.76403964  0.38383556     0.06500
C698        C  0.00513280  0.77449481  0.38169192    -0.02100
Br699      Br  0.03684184  0.81794531  0.37670956    -0.01800
H700        H  0.04095313  0.76134095  0.38141178     0.10400
H701        H  0.42587564  0.72308223  0.38706821     0.08400
Br702      Br  0.42944622  0.66628493  0.38906153    -0.02200
C703        C  0.08449207  0.65712641  0.48300343    -0.08800
C704        C  0.05587392  0.65675229  0.47884163     0.07400
C705        C  0.03800618  0.65636605  0.50177864    -0.02600
C706        C  0.04944328  0.65726684  0.52830973    -0.07000
C707        C  0.07794619  0.65732172  0.53240476     0.06500
C708        C  0.09528630  0.65679457  0.50946260    -0.02100
Br709      Br  0.13446706  0.65687999  0.51306538    -0.01800
H710        H  0.09830666  0.65715743  0.46553113     0.10400
H711        H  0.03580994  0.65746998  0.54582682     0.08400
Br712      Br  0.99867260  0.65594183  0.49801771    -0.02200
C713        C  0.40916792  0.51722150  0.35065437    -0.08800
C714        C  0.40348872  0.52100331  0.32309458     0.07400
C715        C  0.42311455  0.55011261  0.31008968    -0.02600
C716        C  0.44736564  0.57467767  0.32490787    -0.07000
C717        C  0.45264486  0.57118488  0.35273137     0.06500
C718        C  0.43331060  0.54177230  0.36552584    -0.02100
Br719      Br  0.43771017  0.53281548  0.40308665    -0.01800
H720        H  0.39448369  0.49493576  0.36091091     0.10400
H721        H  0.46181587  0.59694862  0.31457805     0.08400
Br722      Br  0.41713414  0.55899628  0.27290530    -0.02200
C723        C  0.20276089  0.97396591  0.28993629    -0.08800
C724        C  0.21558404  0.50618643  0.29598428     0.07400
C725        C  0.24818855  0.52413142  0.30212923    -0.02600
C726        C  0.26709221  0.51007046  0.30083786    -0.07000
C727        C  0.25434161  0.97811646  0.29389145     0.06500
C728        C  0.22160454  0.95992749  0.28878462    -0.02100
Br729      Br  0.20123465  0.91649157  0.27796701    -0.01800
H730        H  0.17781146  0.95948783  0.28534692     0.10400
H731        H  0.29214275  0.52442017  0.30511840     0.08400
Br732      Br  0.26897441  0.56795448  0.31167363    -0.02200
C733        C  0.10377678  0.64158612  0.32474356    -0.08800
C734        C  0.10054570  0.63928853  0.35341853     0.07400
C735        C  0.11618065  0.62625271  0.36812983    -0.02600
C736        C  0.13185369  0.61312439  0.35405048    -0.07000
C737        C  0.13233509  0.61256357  0.32530840     0.06500
C738        C  0.11950780  0.62840895  0.31065394    -0.02100
Br739      Br  0.12259229  0.63257172  0.27142404    -0.01800
H740        H  0.09253493  0.65206736  0.31310226     0.10400
H741        H  0.14199158  0.60154419  0.36567838     0.08400
Br742      Br  0.11658775  0.62508974  0.40752551    -0.02200
C743        C  0.02211898  0.91076737  0.32604820    -0.08800
C744        C  0.01732804  0.91259645  0.35429346     0.07400
C745        C  0.03848550  0.94032632  0.36862068    -0.02600
C746        C  0.06360308  0.96508851  0.35458686    -0.07000
C747        C  0.06831240  0.96316827  0.32635903     0.06500
C748        C  0.04720660  0.93551267  0.31206274    -0.02100
Br749      Br  0.05181772  0.92880087  0.27387122    -0.01800
H750        H  0.00644537  0.88969143  0.31464004     0.10400
H751        H  0.07949831  0.98616912  0.36590008     0.08400
Br752      Br  0.53481065  0.94681722  0.40706162    -0.02200
C753        C  0.23171619  0.76825342  0.05360639    -0.08800
C754        C  0.26441016  0.78044571  0.05659220     0.07400
C755        C  0.27575282  0.75906567  0.05948163    -0.02600
C756        C  0.25455392  0.72658046  0.05948356    -0.07000
C757        C  0.22187385  0.71445225  0.05705509     0.06500
C758        C  0.21049046  0.73573365  0.05396064    -0.02100
Br759      Br  0.16647094  0.72218437  0.04886121    -0.01800
H760        H  0.22249164  0.78411924  0.05126630     0.10400
H761        H  0.26371573  0.71066083  0.06183782     0.08400
Br762      Br  0.31986295  0.77204080  0.06261135    -0.02200
C763        C  0.12652990  0.99885584  0.03665771    -0.08800
C764        C  0.14213238  0.52694039  0.02140464     0.07400
C765        C  0.14464384  0.52488834  0.99271778    -0.02600
C766        C  0.12985230  0.99532965  0.97987604    -0.07000
C767        C  0.11219265  0.96735747  0.99495584     0.06500
C768        C  0.11151053  0.96933842  0.02381504    -0.02100
Br769      Br  0.08666214  0.93332117  0.04665874    -0.01800
H770        H  0.12420216  0.49990017  0.05869894     0.10400
H771        H  0.13052176  0.99434017  0.95768760     0.08400
Br772      Br  0.16391329  0.56133457  0.96945878    -0.02200
C773        C  0.13100956  0.56258897  0.15674140    -0.08800
C774        C  0.15925376  0.58778896  0.14659844     0.07400
C775        C  0.18613541  0.60161962  0.16364536    -0.02600
C776        C  0.18406295  0.59049016  0.19044547    -0.07000
C777        C  0.15559724  0.56548647  0.20084374     0.06500
C778        C  0.12892486  0.55115557  0.18333816    -0.02100
Br779      Br  0.08852471  0.51621568  0.19374664    -0.01800
H780        H  0.11029044  0.55139589  0.14372238     0.10400
H781        H  0.20482655  0.60193045  0.20337000     0.08400
Br782      Br  0.22566971  0.63705768  0.15236304    -0.02200
C783        C  0.05439736  0.61335130  0.03641129    -0.08800
C784        C  0.07683265  0.61047683  0.02051810     0.07400
C785        C  0.07228530  0.60648554  0.99182449    -0.02600
C786        C  0.04614477  0.60619715  0.97981454    -0.07000
C787        C  0.02388416  0.60951384  0.99570341     0.06500
C788        C  0.02814327  0.61277369  0.02449611    -0.02100
Br789      Br  0.99955696  0.61650124  0.04942363    -0.01800
H790        H  0.05730610  0.61624541  0.05844277     0.10400
H791        H  0.04323628  0.60325963  0.95778911     0.08400
Br792      Br  0.09975323  0.60001356  0.96765149    -0.02200
O793        O  0.60446717  0.10841667  0.06045823    -0.57500
C794        C  0.65950278  0.09826317  0.11814217     0.75100
O795        O  0.67235070  0.08383435  0.02814855    -0.58600
C796        C  0.60418523  0.11152549  0.03463452     0.75100
C797        C  0.70039053  0.17984887  0.05844883     0.77500
Cd798      Cd  0.65678633  0.11292798  0.06168287     1.37500
O799        O  0.63476847  0.09599483  0.10755444    -0.57500
O800        O  0.67280978  0.16816665  0.06830987    -0.56300
C801        C  0.64996991  0.05692214  0.03540808     0.77500
O802        O  0.70867208  0.16035337  0.05035148    -0.58700
O803        O  0.68367057  0.10864491  0.10277607    -0.57100
O804        O  0.62856580  0.11579670  0.02177232    -0.57100
O805        O  0.63304774  0.05662007  0.05519497    -0.56300
O806        O  0.62995203  0.03339165  0.24062937    -0.57500
C807        C  0.59565587  0.49004092  0.31289444     0.75100
O808        O  0.70172509  0.04738172  0.30161960    -0.58600
C809        C  0.65419830  0.05647381  0.23014714     0.75100
C810        C  0.64132136  0.09117442  0.31155107     0.77500
Cd811      Cd  0.64954658  0.04175784  0.28765522     1.37500
O812        O  0.59704306  0.49457404  0.28723786    -0.57500
O813        O  0.62674946  0.07589978  0.29046725    -0.56300
C814        C  0.69426038  0.01973080  0.29401224     0.77500
O815        O  0.66185822  0.08513495  0.32121315    -0.58700
O816        O  0.61906637  0.00995985  0.32673744    -0.57100
O817        O  0.67711842  0.07214693  0.24634204    -0.57100
O818        O  0.66692251  0.00353865  0.28392075    -0.56300
O819        O  0.51773134  0.13714269  0.44238898    -0.57500
C820        C  0.97809866  0.09875554  0.36730656     0.75100
O821        O  0.53490026  0.20563721  0.38099849    -0.58600
C822        C  0.54551771  0.15646179  0.45039145     0.75100
C823        C  0.57763664  0.14639825  0.36714756     0.77500
Cd824      Cd  0.52823738  0.15303307  0.39360447     1.37500
O825        O  0.98360977  0.09860646  0.39266072    -0.57500
O826        O  0.56197908  0.13054121  0.38768860    -0.56300
C827        C  0.50712640  0.19848255  0.38855641     0.77500
O828        O  0.57131645  0.16707360  0.35852280    -0.58700
O829        O  0.49563716  0.12419642  0.35468031    -0.57100
O830        O  0.56464110  0.17484506  0.43244850    -0.57100
O831        O  0.49066145  0.17147935  0.39893406    -0.56300
O832        O  0.60405581  0.10563906  0.61690603    -0.57500
C833        C  0.58909923  0.15798356  0.56061131     0.75100
O834        O  0.58300698  0.17361470  0.65258488    -0.58600
C835        C  0.60650594  0.10484858  0.64273648     0.75100
C836        C  0.67646211  0.20429404  0.61740040     0.77500
Cd837      Cd  0.60901915  0.15809593  0.61618429     1.37500
O838        O  0.59721279  0.13852058  0.56866544    -0.57500
O839        O  0.66497230  0.17710217  0.60726765    -0.56300
C840        C  0.55533228  0.15209422  0.64600158     0.77500
O841        O  0.65636281  0.21136687  0.62648349    -0.58700
O842        O  0.59077088  0.17793243  0.57803831    -0.57100
O843        O  0.61061333  0.12879227  0.65592390    -0.57100
O844        O  0.55324267  0.13514210  0.62568662    -0.56300
O845        O  0.99404031  0.10784953  0.95579240    -0.57500
C846        C  0.92938926  0.09457997  0.89910258     0.75100
O847        O  0.90523163  0.08477933  0.99268323    -0.58600
C848        C  0.99714086  0.10995099  0.98165421     0.75100
C849        C  0.96879712  0.18008931  0.95577098     0.77500
Cd850      Cd  0.94583784  0.11254195  0.95532545     1.37500
O851        O  0.95249140  0.09444472  0.91066674    -0.57500
O852        O  0.98464153  0.16783754  0.94737252    -0.56300
C853        C  0.89467133  0.05772316  0.98199782     0.77500
O854        O  0.94087867  0.16077693  0.96396716    -0.58700
O855        O  0.91433542  0.10430295  0.91357507    -0.57100
O856        O  0.97630656  0.11279532  0.99469126    -0.57100
O857        O  0.90611913  0.05720841  0.95886865    -0.56300
O858        O  0.88598758  0.49564215  0.72827129    -0.57500
C859        C  0.89287063  0.05599840  0.78658637     0.75100
O860        O  0.91218824  0.08734425  0.69576972    -0.58600
C861        C  0.88647266  0.49387519  0.70238704     0.75100
C862        C  0.81472641  0.02227578  0.72286002     0.77500
Cd863      Cd  0.88179571  0.04331661  0.72911842     1.37500
O864        O  0.89674511  0.03505040  0.77498069    -0.57500
O865        O  0.82499204  0.00536258  0.73289457    -0.56300
C866        C  0.93898293  0.09476152  0.70591825     0.77500
O867        O  0.83576231  0.04972189  0.71546421    -0.58700
O868        O  0.88316925  0.07055257  0.77166783    -0.57100
O869        O  0.88456983  0.01501096  0.68914720    -0.57100
O870        O  0.93840234  0.08019875  0.72739378    -0.56300
O871        O  0.84550387  0.45158730  0.24009728    -0.57500
C872        C  0.87602011  0.99465231  0.30945300     0.75100
O873        O  0.76742184  0.43638663  0.29362590    -0.58600
C874        C  0.82130449  0.43058298  0.22784558     0.75100
C875        C  0.82534779  0.39374600  0.31257539     0.77500
Cd876      Cd  0.82117804  0.44363387  0.28510729     1.37500
O877        O  0.87365454  0.99143823  0.28363554    -0.57500
O878        O  0.83719080  0.40393737  0.28916951    -0.56300
C879        C  0.77614443  0.46534595  0.29104188     0.77500
O880        O  0.80821441  0.40412629  0.32233563    -0.58700
O881        O  0.85330868  0.47389952  0.32347324    -0.57100
O882        O  0.79636528  0.41590845  0.24221308    -0.57100
O883        O  0.80512300  0.48345444  0.28584498    -0.56300
O884        O  0.85139167  0.40156324  0.10437630    -0.57500
C885        C  0.88448778  0.38599616  0.03271145     0.75100
O886        O  0.77842188  0.33423354  0.04639701    -0.58600
C887        C  0.82526824  0.39541299  0.11526085     0.75100
C888        C  0.83238582  0.43679074  0.03355232     0.77500
Cd889      Cd  0.82957652  0.38225213  0.05877742     1.37500
O890        O  0.88269845  0.38796818  0.05848810    -0.57500
O891        O  0.84527546  0.43747925  0.05615080    -0.56300
C892        C  0.78587132  0.31516984  0.05699340     0.77500
O893        O  0.81500627  0.40969593  0.02320070    -0.58700
O894        O  0.86085761  0.38254165  0.01922255    -0.57100
O895        O  0.80103538  0.38265957  0.10003518    -0.57100
O896        O  0.81267814  0.32744479  0.06830101    -0.56300
O897        O  0.99334351  0.38756563  0.95081006    -0.57500
C898        C  0.56018538  0.39963757  0.89509939     0.75100
O899        O  0.58241031  0.41051121  0.98835548    -0.58600
C900        C  0.98896976  0.38488696  0.97652697     0.75100
C901        C  0.51907461  0.31594407  0.95400148     0.77500
Cd902      Cd  0.54145373  0.38321702  0.95149357     1.37500
O903        O  0.53627107  0.39982289  0.90512695    -0.57500
O904        O  0.50285793  0.32742641  0.94485477    -0.56300
C905        C  0.59051343  0.43799790  0.97985504     0.77500
O906        O  0.54695793  0.33577154  0.96171154    -0.58700
O907        O  0.57450963  0.39064506  0.91105807    -0.57100
O908        O  0.50906896  0.38167729  0.99035322    -0.57100
O909        O  0.57781210  0.43945536  0.95780090    -0.56300
O910        O  0.60683165  0.99935746  0.72358963    -0.57500
C911        C  0.59757765  0.43773652  0.78240903     0.75100
O912        O  0.58179699  0.40624797  0.69203891    -0.58600
C913        C  0.60885042  0.00184400  0.69766874     0.75100
C914        C  0.67819535  0.47172316  0.72045218     0.77500
Cd915      Cd  0.61109154  0.45133606  0.72510149     1.37500
O916        O  0.59412335  0.45877987  0.77060935    -0.57500
O917        O  0.66792042  0.49006570  0.72651542    -0.56300
C918        C  0.55467850  0.39971611  0.70090204     0.77500
O919        O  0.65723325  0.44330302  0.71591559    -0.58700
O920        O  0.60905323  0.42425667  0.76810777    -0.57100
O921        O  0.61145878  0.48079051  0.68491264    -0.57100
O922        O  0.55453930  0.41561871  0.72122263    -0.56300
O923        O  0.89676567  0.35647519  0.57497415    -0.57500
C924        C  0.88428024  0.38932472  0.64565409     0.75100
O925        O  0.83196888  0.28222847  0.62945527    -0.58600
C926        C  0.89558224  0.33230704  0.56447042     0.75100
C927        C  0.93443021  0.33864315  0.64829709     0.77500
Cd928      Cd  0.88017116  0.33462541  0.62080805     1.37500
O929        O  0.88602811  0.38723018  0.61987806    -0.57500
O930        O  0.93626043  0.35344568  0.62657160    -0.56300
C931        C  0.81245318  0.29108747  0.62289325     0.77500
O932        O  0.90670153  0.31947882  0.65689915    -0.58700
O933        O  0.88076622  0.36606244  0.65963429    -0.57100
O934        O  0.88625858  0.30861460  0.58004629    -0.57100
O935        O  0.82436793  0.31951887  0.61578156    -0.56300
O936        O  0.94847084  0.35123307  0.43910708    -0.57500
C937        C  0.99039657  0.38509170  0.36767071     0.75100
O938        O  0.93159321  0.27829627  0.38033474    -0.58600
C939        C  0.92463774  0.32799244  0.44992427     0.75100
C940        C  0.88895270  0.33818700  0.36718475     0.77500
Cd941      Cd  0.93848610  0.33106687  0.39240113     1.37500
O942        O  0.98616190  0.38304092  0.39338435    -0.57500
O943        O  0.90593591  0.35511019  0.38670282    -0.56300
C944        C  0.96007018  0.28622696  0.38582478     0.77500
O945        O  0.89361151  0.31604357  0.35964981    -0.58700
O946        O  0.97032897  0.36194825  0.35365523    -0.57100
O947        O  0.90715414  0.30560852  0.43397272    -0.57100
O948        O  0.97739169  0.31408417  0.39408528    -0.56300
C949        C  0.89162609  0.30224514  0.52215689    -0.08800
C950        C  0.90413641  0.33148172  0.53546194     0.07400
C951        C  0.92438425  0.35913110  0.52065971    -0.02600
C952        C  0.93077765  0.35711104  0.49304421    -0.07000
C953        C  0.91754198  0.32800194  0.47946991     0.06500
C954        C  0.89801933  0.30024345  0.49444422    -0.02100
Br955      Br  0.88020793  0.25883211  0.47891797    -0.01800
H956        H  0.87641673  0.28073863  0.53327813     0.10400
H957        H  0.94610773  0.37867488  0.48204101     0.08400
Br958      Br  0.94544954  0.40041734  0.53679316    -0.02200
C959        C  0.99637707  0.36504403  0.70386156    -0.08800
C960        C  0.52420505  0.37629081  0.68808472     0.07400
C961        C  0.52129305  0.36900557  0.65981595    -0.02600
C962        C  0.99126836  0.35399840  0.64761973    -0.07000
C963        C  0.96373446  0.34554884  0.66304316     0.06500
C964        C  0.96640648  0.34985455  0.69169993    -0.02100
Br965      Br  0.93071686  0.33992602  0.71488586    -0.01800
H966        H  0.49796250  0.36995780  0.72566196     0.10400
H967        H  0.98959396  0.35061883  0.62558223     0.08400
Br968      Br  0.55710388  0.38181256  0.63600987    -0.02200
C969        C  0.55061529  0.41450140  0.84879276    -0.08800
C970        C  0.57059319  0.40958827  0.86632182     0.07400
C971        C  0.59998546  0.41480923  0.85588277    -0.02600
C972        C  0.60824191  0.42394885  0.82852053    -0.07000
C973        C  0.58826243  0.42888553  0.81126052     0.06500
C974        C  0.55919648  0.42411097  0.82159041    -0.02100
Br975      Br  0.52926847  0.42816958  0.79898398    -0.01800
H976        H  0.52794840  0.41056904  0.85614548     0.10400
H977        H  0.63070427  0.42769682  0.82075557     0.08400
Br978      Br  0.63084005  0.41125908  0.87757912    -0.02200
C979        C  0.96453416  0.39255135  0.01836158    -0.08800
C980        C  0.96224630  0.38578850  0.99016700     0.07400
C981        C  0.93442659  0.37954765  0.97617969    -0.02600
C982        C  0.91002174  0.38059094  0.99039996    -0.07000
C983        C  0.91209463  0.38697660  0.01872378     0.06500
C984        C  0.93992950  0.39303658  0.03271492    -0.02100
Br985      Br  0.94651000  0.40192413  0.07130551    -0.01800
H986        H  0.98568112  0.39741415  0.02949601     0.10400
H987        H  0.88883131  0.37546717  0.97922123     0.08400
Br988      Br  0.92680077  0.36698494  0.93833001    -0.02200
C989        C  0.85518182  0.36265857  0.36907382    -0.08800
C990        C  0.86603468  0.34549950  0.35389107     0.07400
C991        C  0.85821466  0.33991382  0.32579595    -0.02600
C992        C  0.84228429  0.35365211  0.31317991    -0.07000
C993        C  0.83369537  0.37289486  0.32798757     0.06500
C994        C  0.83917448  0.37625344  0.35652511    -0.02100
Br995      Br  0.82942831  0.40244393  0.37909860    -0.01800
H996        H  0.86070403  0.36703712  0.39070799     0.10400
H997        H  0.83825825  0.35079130  0.29125325     0.08400
Br998      Br  0.87169998  0.31709108  0.30267520    -0.02200
C999        C  0.84847594  0.43214980  0.15422946    -0.08800
C1000       C  0.82359271  0.40388141  0.14400312     0.07400
C1001       C  0.79766018  0.38497294  0.16120524    -0.02600
C1002       C  0.79723440  0.39444384  0.18820517    -0.07000
C1003       C  0.82222843  0.42273008  0.19860105     0.06500
C1004       C  0.84793346  0.44192142  0.18106124    -0.02100
Br1005     Br  0.88263332  0.48230633  0.19148989    -0.01800
H1006       H  0.86826935  0.44714492  0.14102506     0.10400
H1007       H  0.77742698  0.37920418  0.20127689     0.08400
Br1008     Br  0.76315383  0.34507328  0.14968900    -0.02200
C1009       C  0.88049519  0.46354645  0.65996633    -0.08800
C1010       C  0.88815545  0.46818305  0.68799821     0.07400
C1011       C  0.89619782  0.44765375  0.70139019    -0.02600
C1012       C  0.89503882  0.42248655  0.68697783    -0.07000
C1013       C  0.88640994  0.41729101  0.65918435     0.06500
C1014       C  0.87951358  0.43848019  0.64552297    -0.02100
Br1015     Br  0.86664305  0.43388594  0.60779729    -0.01800
H1016       H  0.87436167  0.47905909  0.64923463     0.10400
H1017       H  0.90105727  0.40685849  0.69766830     0.08400
Br1018     Br  0.90986788  0.45265296  0.73891467    -0.02200
C1019       C  0.75916977  0.47729154  0.72371948    -0.08800
C1020       C  0.77992620  0.00985292  0.72026305     0.07400
C1021       C  0.76662955  0.02922705  0.71548265    -0.02600
C1022       C  0.73363013  0.01604583  0.71501457    -0.07000
C1023       C  0.71293526  0.48360830  0.71906080     0.06500
C1024       C  0.72619123  0.46412067  0.72314693    -0.02100
Br1025     Br  0.70101290  0.41972817  0.72999217    -0.01800
H1026       H  0.76861474  0.46180382  0.72734440     0.10400
H1027       H  0.72406955  0.03150443  0.71176622     0.08400
Br1028     Br  0.79163914  0.07400503  0.71073942    -0.02200
C1029       C  0.96185204  0.22720796  0.95894082    -0.08800
C1030       C  0.98228349  0.21500669  0.95573649     0.07400
C1031       C  0.51513978  0.23662084  0.95233587    -0.02600
C1032       C  0.52653209  0.26916443  0.95245055    -0.07000
C1033       C  0.50600041  0.28123309  0.95521236     0.06500
C1034       C  0.97322489  0.25974002  0.95844456    -0.02100
Br1035     Br  0.94255318  0.27300473  0.96330719    -0.01800
H1036       H  0.93669100  0.21132580  0.96157439     0.10400
H1037       H  0.55166957  0.28518006  0.94978920     0.08400
Br1038     Br  0.54640405  0.22407252  0.94761863    -0.02200
C1039       C  0.85174601  0.49414571  0.03604358    -0.08800
C1040       C  0.83984686  0.46678821  0.01984005     0.07400
C1041       C  0.84127780  0.47007886  0.99103356    -0.02600
C1042       C  0.85689504  0.00017916  0.97930848    -0.07000
C1043       C  0.87164122  0.02757630  0.99557455     0.06500
C1044       C  0.86764555  0.02427134  0.02432723    -0.02100
Br1045     Br  0.88629155  0.05927386  0.04920392    -0.01800
H1046       H  0.85061908  0.49216842  0.05820759     0.10400
H1047       H  0.85923386  0.00204355  0.95717962     0.08400
Br1048     Br  0.82622623  0.43496242  0.96634274    -0.02200
C1049       C  0.89257263  0.08224032  0.85975934    -0.08800
C1050       C  0.92003975  0.08365216  0.87039557     0.07400
C1051       C  0.93730546  0.07402844  0.85340922    -0.02600
C1052       C  0.92735114  0.06420394  0.82650895    -0.07000
C1053       C  0.90061127  0.06391747  0.81578513     0.06500
C1054       C  0.88278865  0.07246542  0.83280831    -0.02100
Br1055     Br  0.84393437  0.06948464  0.82084360    -0.01800
H1056       H  0.87844130  0.08867355  0.87246557     0.10400
H1057       H  0.94118730  0.05757335  0.81358714     0.08400
Br1058     Br  0.97506668  0.07413191  0.86471375    -0.02200
C1059       C  0.72299273  0.25806038  0.62552060    -0.08800
C1060       C  0.71141330  0.22628055  0.61873303     0.07400
C1061       C  0.73368776  0.21618526  0.61396166    -0.02600
C1062       C  0.76619099  0.23754032  0.61608535    -0.07000
C1063       C  0.77765570  0.26924787  0.62253385     0.06500
C1064       C  0.75560917  0.27946142  0.62734751    -0.02100
Br1065     Br  0.76828652  0.32187888  0.63794309    -0.01800
H1066       H  0.70659257  0.26641396  0.62948292     0.10400
H1067       H  0.78272129  0.22932425  0.61216969     0.08400
Br1068     Br  0.72225245  0.17363669  0.60494733    -0.02200
C1069       C  0.52719248  0.14347010  0.69048692    -0.08800
C1070       C  0.52666534  0.14518954  0.66181640     0.07400
C1071       C  0.99751229  0.13520352  0.64858460    -0.02600
C1072       C  0.96935575  0.12154880  0.66379025    -0.07000
C1073       C  0.96943707  0.11684166  0.69220031     0.06500
C1074       C  0.99899004  0.12925797  0.70573219    -0.02100
Br1075     Br  0.00282659  0.12644617  0.74472678    -0.01800
H1076       H  0.54944240  0.15114072  0.70092698     0.10400
H1077       H  0.94714276  0.11257902  0.65296659     0.08400
Br1078     Br  0.99467780  0.13847186  0.60954996    -0.02200
C1079       C  0.59330862  0.04295531  0.69587282    -0.08800
C1080       C  0.60796045  0.02783051  0.68310971     0.07400
C1081       C  0.62135258  0.03790645  0.65670567    -0.02600
C1082       C  0.61978505  0.06244569  0.64375186    -0.07000
C1083       C  0.60560589  0.07779659  0.65668048     0.06500
C1084       C  0.59197426  0.06768804  0.68292468    -0.02100
Br1085     Br  0.56970426  0.08546920  0.70143165    -0.01800
H1086       H  0.58250631  0.03529852  0.71592723     0.10400
H1087       H  0.63065441  0.07026384  0.62373295     0.08400
Br1088     Br  0.64416940  0.02105538  0.63771459    -0.02200
C1089       C  0.51576760  0.25275498  0.38265794    -0.08800
C1090       C  0.49452118  0.22041895  0.38584007     0.07400
C1091       C  0.96165608  0.20989562  0.38679703    -0.02600
C1092       C  0.95105009  0.23162706  0.38570540    -0.07000
C1093       C  0.97238017  0.26403975  0.38383517     0.06500
C1094       C  0.50513287  0.27449500  0.38169155    -0.02100
Br1095     Br  0.53684194  0.31794553  0.37670934    -0.01800
H1096       H  0.54095324  0.26134118  0.38141160     0.10400
H1097       H  0.92587571  0.22308235  0.38706780     0.08400
Br1098     Br  0.92944628  0.16628508  0.38906150    -0.02200
C1099       C  0.58449199  0.15712659  0.48300342    -0.08800
C1100       C  0.55587391  0.15675266  0.47884168     0.07400
C1101       C  0.53800630  0.15636661  0.50177872    -0.02600
C1102       C  0.54944342  0.15726733  0.52830980    -0.07000
C1103       C  0.57794623  0.15732199  0.53240478     0.06500
C1104       C  0.59528624  0.15679473  0.50946257    -0.02100
Br1105     Br  0.63446693  0.15688001  0.51306524    -0.01800
H1106       H  0.59830646  0.15715750  0.46553111     0.10400
H1107       H  0.53581017  0.15747059  0.54582692     0.08400
Br1108     Br  0.49867291  0.15594278  0.49801787    -0.02200
C1109       C  0.90916774  0.01722170  0.35065442    -0.08800
C1110       C  0.90348879  0.02100337  0.32309454     0.07400
C1111       C  0.92311488  0.05011256  0.31008956    -0.02600
C1112       C  0.94736589  0.07467763  0.32490780    -0.07000
C1113       C  0.95264485  0.07118497  0.35273140     0.06500
C1114       C  0.93331037  0.04177248  0.36552593    -0.02100
Br1115     Br  0.93770956  0.03281578  0.40308686    -0.01800
H1116       H  0.89448333  0.99493604  0.36091102     0.10400
H1117       H  0.96181634  0.09694852  0.31457791     0.08400
Br1118     Br  0.91713494  0.05899600  0.27290496    -0.02200
C1119       C  0.70276079  0.47396573  0.28993625    -0.08800
C1120       C  0.71558435  0.00618685  0.29598413     0.07400
C1121       C  0.74818888  0.02413180  0.30212903    -0.02600
C1122       C  0.76709250  0.01007079  0.30083763    -0.07000
C1123       C  0.75434149  0.47811629  0.29389156     0.06500
C1124       C  0.72160446  0.45992733  0.28878457    -0.02100
Br1125     Br  0.70123470  0.41649147  0.27796673    -0.01800
H1126       H  0.67781136  0.45948763  0.28534672     0.10400
H1127       H  0.79214304  0.02442045  0.30511815     0.08400
Br1128     Br  0.76897481  0.06795485  0.31167341    -0.02200
C1129       C  0.60377657  0.14158619  0.32474346    -0.08800
C1130       C  0.60054558  0.13928867  0.35341844     0.07400
C1131       C  0.61618062  0.12625294  0.36812975    -0.02600
C1132       C  0.63185369  0.11312465  0.35405040    -0.07000
C1133       C  0.63233503  0.11256376  0.32530832     0.06500
C1134       C  0.61950763  0.12840904  0.31065385    -0.02100
Br1135     Br  0.62259201  0.13257175  0.27142394    -0.01800
H1136       H  0.59253466  0.15206735  0.31310217     0.10400
H1137       H  0.64199166  0.10154453  0.36567831     0.08400
Br1138     Br  0.61658782  0.12509003  0.40752543    -0.02200
C1139       C  0.52211948  0.41076699  0.32604814    -0.08800
C1140       C  0.51732792  0.41259645  0.35429321     0.07400
C1141       C  0.53848475  0.44032672  0.36862024    -0.02600
C1142       C  0.56360236  0.46508885  0.35458643    -0.07000
C1143       C  0.56831230  0.46316822  0.32635879     0.06500
C1144       C  0.54720709  0.43551226  0.31206267    -0.02100
Br1145     Br  0.55181905  0.42880000  0.27387144    -0.01800
H1146       H  0.50644631  0.38969070  0.31464013     0.10400
H1147       H  0.57949713  0.48616980  0.36589950     0.08400
Br1148     Br  0.03480870  0.44681831  0.40706091    -0.02200
C1149       C  0.73171602  0.26825342  0.05360674    -0.08800
C1150       C  0.76441002  0.28044565  0.05659238     0.07400
C1151       C  0.77575269  0.25906558  0.05948159    -0.02600
C1152       C  0.75455381  0.22658036  0.05948350    -0.07000
C1153       C  0.72187372  0.21445220  0.05705518     0.06500
C1154       C  0.71049032  0.23573362  0.05396093    -0.02100
Br1155     Br  0.66647076  0.22218432  0.04886161    -0.01800
H1156       H  0.72249147  0.28411923  0.05126680     0.10400
H1157       H  0.76371561  0.21066075  0.06183760     0.08400
Br1158     Br  0.81986284  0.27204069  0.06261097    -0.02200
C1159       C  0.62653004  0.49885600  0.03665750    -0.08800
C1160       C  0.64213232  0.02694022  0.02140476     0.07400
C1161       C  0.64464387  0.02488812  0.99271792    -0.02600
C1162       C  0.62985228  0.49532985  0.97987581    -0.07000
C1163       C  0.61219266  0.46735767  0.99495561     0.06500
C1164       C  0.61151058  0.46933860  0.02381481    -0.02100
Br1165     Br  0.58666214  0.43332136  0.04665851    -0.01800
H1166       H  0.62420204  0.99990009  0.05869908     0.10400
H1167       H  0.63052168  0.49434039  0.95768737     0.08400
Br1168     Br  0.66391343  0.06133433  0.96945890    -0.02200
C1169       C  0.63100929  0.06258917  0.15674141    -0.08800
C1170       C  0.65925349  0.08778915  0.14659842     0.07400
C1171       C  0.68613515  0.10161985  0.16364533    -0.02600
C1172       C  0.68406274  0.09049041  0.19044544    -0.07000
C1173       C  0.65559707  0.06548669  0.20084373     0.06500
C1174       C  0.62892465  0.05115579  0.18333818    -0.02100
Br1175     Br  0.58852452  0.01621591  0.19374671    -0.01800
H1176       H  0.61029019  0.05139608  0.14372243     0.10400
H1177       H  0.70482637  0.10193074  0.20336996     0.08400
Br1178     Br  0.72566943  0.13705793  0.15236299    -0.02200
C1179       C  0.55439718  0.11335114  0.03641103    -0.08800
C1180       C  0.57683276  0.11047728  0.02051774     0.07400
C1181       C  0.57228566  0.10648653  0.99182406    -0.02600
C1182       C  0.54614509  0.10619809  0.97981415    -0.07000
C1183       C  0.52388415  0.10951411  0.99570314     0.06500
C1184       C  0.52814297  0.11277334  0.02449589    -0.02100
Br1185     Br  0.49955594  0.11649946  0.04942358    -0.01800
H1186       H  0.55730567  0.11624477  0.05844253     0.10400
H1187       H  0.54323680  0.10326103  0.95778867     0.08400
Br1188     Br  0.59975399  0.10001531  0.96765091    -0.02200
O1189       O  0.60446733  0.60841667  0.06045855    -0.57500
C1190       C  0.65950302  0.59826311  0.11814219     0.75100
O1191       O  0.67235070  0.58383454  0.02814834    -0.58600
C1192       C  0.60418519  0.61152517  0.03463481     0.75100
C1193       C  0.70039069  0.67984895  0.05844881     0.77500
Cd1194     Cd  0.65678653  0.61292803  0.06168297     1.37500
O1195       O  0.63476869  0.59599474  0.10755448    -0.57500
O1196       O  0.67280987  0.66816675  0.06830967    -0.56300
C1197       C  0.64997012  0.55692228  0.03540802     0.77500
O1198       O  0.70867232  0.66035341  0.05035170    -0.58700
O1199       O  0.68367084  0.60864499  0.10277612    -0.57100
O1200       O  0.62856566  0.61579627  0.02177254    -0.57100
O1201       O  0.63304821  0.55662015  0.05519516    -0.56300
O1202       O  0.62995196  0.53339158  0.24062935    -0.57500
C1203       C  0.59565594  0.99004105  0.31289456     0.75100
O1204       O  0.70172493  0.54738149  0.30161948    -0.58600
C1205       C  0.65419831  0.55647363  0.23014712     0.75100
C1206       C  0.64132131  0.59117421  0.31155109     0.77500
Cd1207     Cd  0.64954648  0.54175765  0.28765517     1.37500
O1208       O  0.59704305  0.99457431  0.28723801    -0.57500
O1209       O  0.62674918  0.57589942  0.29046741    -0.56300
C1210       C  0.69426016  0.51973049  0.29401230     0.77500
O1211       O  0.66185834  0.58513487  0.32121301    -0.58700
O1212       O  0.61906619  0.50995983  0.32673736    -0.57100
O1213       O  0.67711846  0.57214668  0.24634201    -0.57100
O1214       O  0.66692223  0.50353827  0.28392096    -0.56300
O1215       O  0.51773141  0.63714231  0.44238882    -0.57500
C1216       C  0.97809876  0.59875541  0.36730650     0.75100
O1217       O  0.53490018  0.70563708  0.38099847    -0.58600
C1218       C  0.54551770  0.65646153  0.45039136     0.75100
C1219       C  0.57763674  0.64639815  0.36714757     0.77500
Cd1220     Cd  0.52823742  0.65303294  0.39360439     1.37500
O1221       O  0.98360973  0.59860637  0.39266070    -0.57500
O1222       O  0.56197896  0.63054092  0.38768845    -0.56300
C1223       C  0.50712634  0.69848240  0.38855647     0.77500
O1224       O  0.57131673  0.66707365  0.35852291    -0.58700
O1225       O  0.49563718  0.62419631  0.35468023    -0.57100
O1226       O  0.56464106  0.67484499  0.43244848    -0.57100
O1227       O  0.49066142  0.67147917  0.39893408    -0.56300
O1228       O  0.60405592  0.60563915  0.61690603    -0.57500
C1229       C  0.58909902  0.65798329  0.56061128     0.75100
O1230       O  0.58300682  0.67361467  0.65258483    -0.58600
C1231       C  0.60650572  0.60484852  0.64273650     0.75100
C1232       C  0.67646201  0.70429406  0.61740040     0.77500
Cd1233     Cd  0.60901900  0.65809591  0.61618427     1.37500
O1234       O  0.59721247  0.63852027  0.56866552    -0.57500
O1235       O  0.66497220  0.67710215  0.60726773    -0.56300
C1236       C  0.55533211  0.65209429  0.64600142     0.77500
O1237       O  0.65636269  0.71136693  0.62648337    -0.58700
O1238       O  0.59077079  0.67793231  0.57803818    -0.57100
O1239       O  0.61061278  0.62879208  0.65592395    -0.57100
O1240       O  0.55324249  0.63514225  0.62568642    -0.56300
O1241       O  0.99404064  0.60784951  0.95579254    -0.57500
C1242       C  0.92938943  0.59457965  0.89910262     0.75100
O1243       O  0.90523169  0.58477910  0.99268309    -0.58600
C1244       C  0.99714099  0.60995075  0.98165436     0.75100
C1245       C  0.96879738  0.68008916  0.95577094     0.77500
Cd1246     Cd  0.94583807  0.61254176  0.95532544     1.37500
O1247       O  0.95249165  0.59444451  0.91066675    -0.57500
O1248       O  0.98464165  0.66783736  0.94737216    -0.56300
C1249       C  0.89467147  0.55772293  0.98199770     0.77500
O1250       O  0.94087904  0.66077679  0.96396737    -0.58700
O1251       O  0.91433553  0.60430254  0.91357514    -0.57100
O1252       O  0.97630651  0.61279485  0.99469136    -0.57100
O1253       O  0.90611942  0.55720818  0.95886860    -0.56300
O1254       O  0.88598708  0.99564200  0.72827117    -0.57500
C1255       C  0.89287078  0.55599822  0.78658642     0.75100
O1256       O  0.91218807  0.58734415  0.69576956    -0.58600
C1257       C  0.88647228  0.99387514  0.70238692     0.75100
C1258       C  0.81472653  0.52227571  0.72286007     0.77500
Cd1259     Cd  0.88179585  0.54331660  0.72911845     1.37500
O1260       O  0.89674538  0.53505035  0.77498065    -0.57500
O1261       O  0.82499218  0.50536240  0.73289437    -0.56300
C1262       C  0.93898282  0.59476167  0.70591811     0.77500
O1263       O  0.83576242  0.54972192  0.71546451    -0.58700
O1264       O  0.88316929  0.57055236  0.77166798    -0.57100
O1265       O  0.88457003  0.51501089  0.68914730    -0.57100
O1266       O  0.93840236  0.58019908  0.72739371    -0.56300
O1267       O  0.84550384  0.95158739  0.24009725    -0.57500
C1268       C  0.87602012  0.49465226  0.30945298     0.75100
O1269       O  0.76742187  0.93638672  0.29362593    -0.58600
C1270       C  0.82130444  0.93058314  0.22784553     0.75100
C1271       C  0.82534791  0.89374607  0.31257538     0.77500
Cd1272     Cd  0.82117806  0.94363392  0.28510728     1.37500
O1273       O  0.87365441  0.49143832  0.28363551    -0.57500
O1274       O  0.83719098  0.90393752  0.28916953    -0.56300
C1275       C  0.77614448  0.96534604  0.29104179     0.77500
O1276       O  0.80821442  0.90412626  0.32233559    -0.58700
O1277       O  0.85330855  0.97389971  0.32347325    -0.57100
O1278       O  0.79636523  0.91590862  0.24221304    -0.57100
O1279       O  0.80512303  0.98345448  0.28584483    -0.56300
O1280       O  0.85139151  0.90156299  0.10437639    -0.57500
C1281       C  0.88448776  0.88599605  0.03271131     0.75100
O1282       O  0.77842213  0.83423359  0.04639663    -0.58600
C1283       C  0.82526812  0.89541316  0.11526075     0.75100
C1284       C  0.83238624  0.93679101  0.03355242     0.77500
Cd1285     Cd  0.82957663  0.88225220  0.05877736     1.37500
O1286       O  0.88269833  0.88796776  0.05848799    -0.57500
O1287       O  0.84527657  0.93747954  0.05615052    -0.56300
C1288       C  0.78587147  0.81516992  0.05699324     0.77500
O1289       O  0.81500602  0.90969617  0.02320108    -0.58700
O1290       O  0.86085774  0.88254188  0.01922240    -0.57100
O1291       O  0.80103539  0.88266011  0.10003491    -0.57100
O1292       O  0.81267814  0.82744489  0.06830111    -0.56300
O1293       O  0.99334337  0.88756509  0.95081001    -0.57500
C1294       C  0.56018554  0.89963747  0.89509954     0.75100
O1295       O  0.58241023  0.91051100  0.98835568    -0.58600
C1296       C  0.98896975  0.88488675  0.97652694     0.75100
C1297       C  0.51907474  0.81594390  0.95400157     0.77500
Cd1298     Cd  0.54145376  0.88321680  0.95149366     1.37500
O1299       O  0.53627135  0.89982300  0.90512715    -0.57500
O1300       O  0.50285803  0.82742620  0.94485485    -0.56300
C1301       C  0.59051334  0.93799769  0.97985524     0.77500
O1302       O  0.54695806  0.83577139  0.96171163    -0.58700
O1303       O  0.57450964  0.89064473  0.91105816    -0.57100
O1304       O  0.50906900  0.88167725  0.99035323    -0.57100
O1305       O  0.57781204  0.93945515  0.95780108    -0.56300
O1306       O  0.60683156  0.49935734  0.72358951    -0.57500
C1307       C  0.59757770  0.93773646  0.78240920     0.75100
O1308       O  0.58179683  0.90624788  0.69203930    -0.58600
C1309       C  0.60885028  0.50184390  0.69766862     0.75100
C1310       C  0.67819526  0.97172317  0.72045228     0.77500
Cd1311     Cd  0.61109152  0.95133613  0.72510168     1.37500
O1312       O  0.59412357  0.95877997  0.77060962    -0.57500
O1313       O  0.66792036  0.99006567  0.72651578    -0.56300
C1314       C  0.55467837  0.89971631  0.70090228     0.77500
O1315       O  0.65723315  0.94330308  0.71591551    -0.58700
O1316       O  0.60905307  0.92425649  0.76810782    -0.57100
O1317       O  0.61145895  0.98079060  0.68491280    -0.57100
O1318       O  0.55453924  0.91561917  0.72122270    -0.56300
O1319       O  0.89676577  0.85647543  0.57497429    -0.57500
C1320       C  0.88428008  0.88932479  0.64565402     0.75100
O1321       O  0.83196882  0.78222849  0.62945530    -0.58600
C1322       C  0.89558213  0.83230721  0.56447049     0.75100
C1323       C  0.93443016  0.83864322  0.64829711     0.77500
Cd1324     Cd  0.88017107  0.83462548  0.62080810     1.37500
O1325       O  0.88602774  0.88723012  0.61987799    -0.57500
O1326       O  0.93626035  0.85344556  0.62657152    -0.56300
C1327       C  0.81245310  0.79108749  0.62289336     0.77500
O1328       O  0.90670149  0.81947903  0.65689928    -0.58700
O1329       O  0.88076633  0.86606264  0.65963428    -0.57100
O1330       O  0.88625827  0.80861469  0.58004630    -0.57100
O1331       O  0.82436782  0.81951890  0.61578174    -0.56300
O1332       O  0.94847069  0.85123312  0.43910718    -0.57500
C1333       C  0.99039669  0.88509168  0.36767093     0.75100
O1334       O  0.93159314  0.77829613  0.38033515    -0.58600
C1335       C  0.92463762  0.82799247  0.44992438     0.75100
C1336       C  0.88895277  0.83818701  0.36718481     0.77500
Cd1337     Cd  0.93848611  0.83106683  0.39240128     1.37500
O1338       O  0.98616201  0.88304084  0.39338458    -0.57500
O1339       O  0.90593583  0.85511007  0.38670302    -0.56300
C1340       C  0.96007013  0.78622682  0.38582512     0.77500
O1341       O  0.89361170  0.81604369  0.35964979    -0.58700
O1342       O  0.97032904  0.86194830  0.35365543    -0.57100
O1343       O  0.90715409  0.80560849  0.43397285    -0.57100
O1344       O  0.97739169  0.81408408  0.39408549    -0.56300
C1345       C  0.89162596  0.80224531  0.52215698    -0.08800
C1346       C  0.90413626  0.83148189  0.53546201     0.07400
C1347       C  0.92438407  0.85913125  0.52065975    -0.02600
C1348       C  0.93077742  0.85711112  0.49304425    -0.07000
C1349       C  0.91754180  0.82800202  0.47946999     0.06500
C1350       C  0.89801918  0.80024355  0.49444432    -0.02100
Br1351     Br  0.88020778  0.75883218  0.47891816    -0.01800
H1352       H  0.87641661  0.78073879  0.53327825     0.10400
H1353       H  0.94610750  0.87867496  0.48204101     0.08400
Br1354     Br  0.94544940  0.90041752  0.53679314    -0.02200
C1355       C  0.99637702  0.86504431  0.70386164    -0.08800
C1356       C  0.52420488  0.87629102  0.68808501     0.07400
C1357       C  0.52129289  0.86900554  0.65981629    -0.02600
C1358       C  0.99126836  0.85399861  0.64761977    -0.07000
C1359       C  0.96373444  0.84554900  0.66304321     0.06500
C1360       C  0.96640645  0.84985477  0.69169997    -0.02100
Br1361     Br  0.93071679  0.83992622  0.71488588    -0.01800
H1362       H  0.49796234  0.86995845  0.72566217     0.10400
H1363       H  0.98959400  0.85061903  0.62558230     0.08400
Br1364     Br  0.55710373  0.88181226  0.63601028    -0.02200
C1365       C  0.55061555  0.91450155  0.84879301    -0.08800
C1366       C  0.57059333  0.90958816  0.86632198     0.07400
C1367       C  0.59998548  0.91480887  0.85588285    -0.02600
C1368       C  0.60824184  0.92394844  0.82852060    -0.07000
C1369       C  0.58826250  0.92888542  0.81126068     0.06500
C1370       C  0.55919671  0.92411118  0.82159068    -0.02100
Br1371     Br  0.52926893  0.92817044  0.79898448    -0.01800
H1372       H  0.52794877  0.91056942  0.85614581     0.10400
H1373       H  0.63070413  0.92769621  0.82075553     0.08400
Br1374     Br  0.63084001  0.91125854  0.87757912    -0.02200
C1375       C  0.96453430  0.89255166  0.01836140    -0.08800
C1376       C  0.96224625  0.88578828  0.99016691     0.07400
C1377       C  0.93442634  0.87954692  0.97617967    -0.02600
C1378       C  0.91002147  0.88059023  0.99039990    -0.07000
C1379       C  0.91209458  0.88697643  0.01872363     0.06500
C1380       C  0.93992965  0.89303694  0.03271470    -0.02100
Br1381     Br  0.94651052  0.90192550  0.07130512    -0.01800
H1382       H  0.98568144  0.89741489  0.02949577     0.10400
H1383       H  0.88883090  0.87546605  0.97922125     0.08400
Br1384     Br  0.92680030  0.86698349  0.93833018    -0.02200
C1385       C  0.85518189  0.86265859  0.36907384    -0.08800
C1386       C  0.86603480  0.84549956  0.35389109     0.07400
C1387       C  0.85821486  0.83991395  0.32579596    -0.02600
C1388       C  0.84228450  0.85365225  0.31317989    -0.07000
C1389       C  0.83369552  0.87289495  0.32798756     0.06500
C1390       C  0.83917458  0.87625348  0.35652511    -0.02100
Br1391     Br  0.82942840  0.90244398  0.37909860    -0.01800
H1392       H  0.86070404  0.86703710  0.39070802     0.10400
H1393       H  0.83825852  0.85079148  0.29125323     0.08400
Br1394     Br  0.87170027  0.81709128  0.30267520    -0.02200
C1395       C  0.84847611  0.93214969  0.15422951    -0.08800
C1396       C  0.82359253  0.90388165  0.14400300     0.07400
C1397       C  0.79765967  0.88497355  0.16120494    -0.02600
C1398       C  0.79723393  0.89444445  0.18820488    -0.07000
C1399       C  0.82222834  0.92273031  0.19860096     0.06500
C1400       C  0.84793370  0.94192130  0.18106130    -0.02100
Br1401     Br  0.88263423  0.98230569  0.19149020    -0.01800
H1402       H  0.86826978  0.94714452  0.14102526     0.10400
H1403       H  0.77742623  0.87920506  0.20127646     0.08400
Br1404     Br  0.76315274  0.84507438  0.14968844    -0.02200
C1405       C  0.88049438  0.96354614  0.65996628    -0.08800
C1406       C  0.88815502  0.96818300  0.68799807     0.07400
C1407       C  0.89619783  0.94765400  0.70138996    -0.02600
C1408       C  0.89503891  0.92248685  0.68697760    -0.07000
C1409       C  0.88640969  0.91729105  0.65918422     0.06500
C1410       C  0.87951286  0.93847993  0.64552291    -0.02100
Br1411     Br  0.86664184  0.93388530  0.60779736    -0.01800
H1412       H  0.87436050  0.97905857  0.64923465     0.10400
H1413       H  0.90105773  0.90685900  0.69766803     0.08400
Br1414     Br  0.90986845  0.95265361  0.73891429    -0.02200
C1415       C  0.75916969  0.97729155  0.72371930    -0.08800
C1416       C  0.77992632  0.50985287  0.72026312     0.07400
C1417       C  0.76662969  0.52922701  0.71548262    -0.02600
C1418       C  0.73363027  0.51604578  0.71501451    -0.07000
C1419       C  0.71293516  0.98360832  0.71906079     0.06500
C1420       C  0.72619115  0.96412067  0.72314675    -0.02100
Br1421     Br  0.70101283  0.91972813  0.72999174    -0.01800
H1422       H  0.76861467  0.96180385  0.72734410     0.10400
H1423       H  0.72406971  0.53150438  0.71176605     0.08400
Br1424     Br  0.79163928  0.57400495  0.71073922    -0.02200
C1425       C  0.96185227  0.72720777  0.95894104    -0.08800
C1426       C  0.98228375  0.71500654  0.95573651     0.07400
C1427       C  0.51513993  0.73662070  0.95233580    -0.02600
C1428       C  0.52653227  0.76916430  0.95245049    -0.07000
C1429       C  0.50600057  0.78123293  0.95521248     0.06500
C1430       C  0.97322518  0.75973986  0.95844485    -0.02100
Br1431     Br  0.94255352  0.77300458  0.96330783    -0.01800
H1432       H  0.93669130  0.71132565  0.96157470     0.10400
H1433       H  0.55166971  0.78517992  0.94978904     0.08400
Br1434     Br  0.54640420  0.72407238  0.94761857    -0.02200
C1435       C  0.85174633  0.99414595  0.03604378    -0.08800
C1436       C  0.83984715  0.96678846  0.01984023     0.07400
C1437       C  0.84127788  0.97007910  0.99103375    -0.02600
C1438       C  0.85689513  0.50017893  0.97930830    -0.07000
C1439       C  0.87164127  0.52757606  0.99557438     0.06500
C1440       C  0.86764541  0.52427110  0.02432704    -0.02100
Br1441     Br  0.88629141  0.55927361  0.04920375    -0.01800
H1442       H  0.85061956  0.99216864  0.05820780     0.10400
H1443       H  0.85923409  0.50204333  0.95717944     0.08400
Br1444     Br  0.82622635  0.93496264  0.96634296    -0.02200
C1445       C  0.89257248  0.58223946  0.85975957    -0.08800
C1446       C  0.92003991  0.58365183  0.87039563     0.07400
C1447       C  0.93730594  0.57402866  0.85340911    -0.02600
C1448       C  0.92735161  0.56420416  0.82650884    -0.07000
C1449       C  0.90061143  0.56391721  0.81578519     0.06500
C1450       C  0.88278851  0.57246461  0.83280853    -0.02100
Br1451     Br  0.84393388  0.56948318  0.82084400    -0.01800
H1452       H  0.87844091  0.58867227  0.87246593     0.10400
H1453       H  0.94118800  0.55757399  0.81358690     0.08400
Br1454     Br  0.97506771  0.57413304  0.86471335    -0.02200
C1455       C  0.72299264  0.75806037  0.62552077    -0.08800
C1456       C  0.71141320  0.72628058  0.61873306     0.07400
C1457       C  0.73368767  0.71618532  0.61396161    -0.02600
C1458       C  0.76619089  0.73754037  0.61608534    -0.07000
C1459       C  0.77765561  0.76924788  0.62253397     0.06500
C1460       C  0.75560909  0.77946141  0.62734773    -0.02100
Br1461     Br  0.76828644  0.82187881  0.63794350    -0.01800
H1462       H  0.70659249  0.76641394  0.62948317     0.10400
H1463       H  0.78272122  0.72932431  0.61216960     0.08400
Br1464     Br  0.72225239  0.67363680  0.60494709    -0.02200
C1465       C  0.52719224  0.64347026  0.69048671    -0.08800
C1466       C  0.52666515  0.64518964  0.66181620     0.07400
C1467       C  0.99751210  0.63520362  0.64858439    -0.02600
C1468       C  0.96935556  0.62154893  0.66379005    -0.07000
C1469       C  0.96943691  0.61684189  0.69220013     0.06500
C1470       C  0.99898989  0.62925832  0.70573201    -0.02100
Br1471     Br  0.00282648  0.62644678  0.74472662    -0.01800
H1472       H  0.54944221  0.65114094  0.70092681     0.10400
H1473       H  0.94714255  0.61257908  0.65296640     0.08400
Br1474     Br  0.99467758  0.63847183  0.60954973    -0.02200
C1475       C  0.59330827  0.54295507  0.69587274    -0.08800
C1476       C  0.60796028  0.52783042  0.68310965     0.07400
C1477       C  0.62135261  0.53790655  0.65670570    -0.02600
C1478       C  0.61978502  0.56244577  0.64375190    -0.07000
C1479       C  0.60560569  0.57779652  0.65668048     0.06500
C1480       C  0.59197394  0.56768783  0.68292464    -0.02100
Br1481     Br  0.56970388  0.58546890  0.70143163    -0.01800
H1482       H  0.58250586  0.53529817  0.71592708     0.10400
H1483       H  0.63065453  0.57026405  0.62373305     0.08400
Br1484     Br  0.64416989  0.52105586  0.63771482    -0.02200
C1485       C  0.51576754  0.75275486  0.38265817    -0.08800
C1486       C  0.49452112  0.72041882  0.38584028     0.07400
C1487       C  0.96165599  0.70989543  0.38679726    -0.02600
C1488       C  0.95105003  0.73162690  0.38570577    -0.07000
C1489       C  0.97238011  0.76403959  0.38383554     0.06500
C1490       C  0.50513280  0.77449488  0.38169191    -0.02100
Br1491     Br  0.53684181  0.81794540  0.37670957    -0.01800
H1492       H  0.54095316  0.76134105  0.38141171     0.10400
H1493       H  0.92587564  0.72308219  0.38706819     0.08400
Br1494     Br  0.92944618  0.66628488  0.38906155    -0.02200
C1495       C  0.58449197  0.65712641  0.48300341    -0.08800
C1496       C  0.55587384  0.65675235  0.47884160     0.07400
C1497       C  0.53800610  0.65636611  0.50177861    -0.02600
C1498       C  0.54944316  0.65726682  0.52830970    -0.07000
C1499       C  0.57794603  0.65732164  0.53240474     0.06500
C1500       C  0.59528615  0.65679449  0.50946258    -0.02100
Br1501     Br  0.63446684  0.65687978  0.51306537    -0.01800
H1502       H  0.59830656  0.65715744  0.46553111     0.10400
H1503       H  0.53580981  0.65746997  0.54582678     0.08400
Br1504     Br  0.49867260  0.65594204  0.49801767    -0.02200
C1505       C  0.90916799  0.51722152  0.35065429    -0.08800
C1506       C  0.90348882  0.52100332  0.32309450     0.07400
C1507       C  0.92311468  0.55011262  0.31008961    -0.02600
C1508       C  0.94736575  0.57467766  0.32490783    -0.07000
C1509       C  0.95264493  0.57118487  0.35273134     0.06500
C1510       C  0.93331063  0.54177229  0.36552580    -0.02100
Br1511     Br  0.93771007  0.53281547  0.40308663    -0.01800
H1512       H  0.89448373  0.49493578  0.36091082     0.10400
H1513       H  0.96181603  0.59694863  0.31457801     0.08400
Br1514     Br  0.91713430  0.55899630  0.27290522    -0.02200
C1515       C  0.70276091  0.97396596  0.28993623    -0.08800
C1516       C  0.71558414  0.50618658  0.29598421     0.07400
C1517       C  0.74818864  0.52413155  0.30212922    -0.02600
C1518       C  0.76709229  0.51007058  0.30083782    -0.07000
C1519       C  0.75434159  0.97811645  0.29389145     0.06500
C1520       C  0.72160454  0.95992752  0.28878454    -0.02100
Br1521     Br  0.70123468  0.91649164  0.27796675    -0.01800
H1522       H  0.67781145  0.95948788  0.28534678     0.10400
H1523       H  0.79214285  0.52442028  0.30511842     0.08400
Br1524     Br  0.76897446  0.56795455  0.31167381    -0.02200
C1525       C  0.60377679  0.64158619  0.32474352    -0.08800
C1526       C  0.60054572  0.63928860  0.35341850     0.07400
C1527       C  0.61618065  0.62625276  0.36812980    -0.02600
C1528       C  0.63185369  0.61312442  0.35405047    -0.07000
C1529       C  0.63233508  0.61256360  0.32530838     0.06500
C1530       C  0.61950779  0.62840899  0.31065392    -0.02100
Br1531     Br  0.62259221  0.63257171  0.27142401    -0.01800
H1532       H  0.59253496  0.65206741  0.31310223     0.10400
H1533       H  0.64199158  0.60154421  0.36567837     0.08400
Br1534     Br  0.61658770  0.62508973  0.40752550    -0.02200
C1535       C  0.52211899  0.91076745  0.32604813    -0.08800
C1536       C  0.51732805  0.91259645  0.35429340     0.07400
C1537       C  0.53848553  0.94032630  0.36862062    -0.02600
C1538       C  0.56360305  0.96508849  0.35458677    -0.07000
C1539       C  0.56831237  0.96316831  0.32635894     0.06500
C1540       C  0.54720657  0.93551274  0.31206264    -0.02100
Br1541     Br  0.55181764  0.92880095  0.27387111    -0.01800
H1542       H  0.50644531  0.88969148  0.31463994     0.10400
H1543       H  0.57949830  0.98616910  0.36590000     0.08400
Br1544     Br  0.03481041  0.94681734  0.40706163    -0.02200
C1545       C  0.73171623  0.76825345  0.05360639    -0.08800
C1546       C  0.76441020  0.78044573  0.05659219     0.07400
C1547       C  0.77575286  0.75906569  0.05948163    -0.02600
C1548       C  0.75455396  0.72658048  0.05948357    -0.07000
C1549       C  0.72187389  0.71445227  0.05705510     0.06500
C1550       C  0.71049050  0.73573368  0.05396064    -0.02100
Br1551     Br  0.66647099  0.72218440  0.04886120    -0.01800
H1552       H  0.72249168  0.78411926  0.05126629     0.10400
H1553       H  0.76371576  0.71066085  0.06183783     0.08400
Br1554     Br  0.81986299  0.77204083  0.06261135    -0.02200
C1555       C  0.62652991  0.99885586  0.03665766    -0.08800
C1556       C  0.64213244  0.52694039  0.02140462     0.07400
C1557       C  0.64464393  0.52488832  0.99271776    -0.02600
C1558       C  0.62985221  0.99532964  0.97987599    -0.07000
C1559       C  0.61219256  0.96735747  0.99495580     0.06500
C1560       C  0.61151048  0.96933844  0.02381501    -0.02100
Br1561     Br  0.58666206  0.93332121  0.04665873    -0.01800
H1562       H  0.62420219  0.49990018  0.05869892     0.10400
H1563       H  0.63052163  0.99434015  0.95768755     0.08400
Br1564     Br  0.66391337  0.56133453  0.96945874    -0.02200
C1565       C  0.63100948  0.56258905  0.15674137    -0.08800
C1566       C  0.65925371  0.58778900  0.14659841     0.07400
C1567       C  0.68613537  0.60161962  0.16364533    -0.02600
C1568       C  0.68406289  0.59049015  0.19044544    -0.07000
C1569       C  0.65559716  0.56548650  0.20084370     0.06500
C1570       C  0.62892476  0.55115566  0.18333814    -0.02100
Br1571     Br  0.58852455  0.51621590  0.19374666    -0.01800
H1572       H  0.61029036  0.55139600  0.14372236     0.10400
H1573       H  0.70482649  0.60193042  0.20336996     0.08400
Br1574     Br  0.72566971  0.63705763  0.15236303    -0.02200
C1575       C  0.55439739  0.61335132  0.03641126    -0.08800
C1576       C  0.57683265  0.61047681  0.02051806     0.07400
C1577       C  0.57228526  0.60648549  0.99182446    -0.02600
C1578       C  0.54614474  0.60619713  0.97981452    -0.07000
C1579       C  0.52388416  0.60951385  0.99570340     0.06500
C1580       C  0.52814329  0.61277371  0.02449610    -0.02100
Br1581     Br  0.49955699  0.61650125  0.04942364    -0.01800
H1582       H  0.55730614  0.61624544  0.05844274     0.10400
H1583       H  0.54323622  0.60325959  0.95778909     0.08400
Br1584     Br  0.59975309  0.60001335  0.96765146    -0.02200
loop_ 
_geom_bond_atom_site_label_1 
_geom_bond_atom_site_label_2 
_geom_bond_distance 
_geom_bond_site_symmetry_2 
_ccdc_geom_bond_type 
O1            C4   1.269       .  A
O1           Cd6   2.451       .  S
C2           O11   1.267       .  A
C2            O7   1.267       .  A
C2          C378   1.478       .  S
O3            C9   1.272       .  A
O3           Cd6   2.521       .  S
C4           O12   1.264       .  A
C4          C388   1.482       .  S
C5           O10   1.272       .  A
C5            O8   1.263       .  A
C5          C361   1.485       .  S
Cd6          O13   2.424       .  S
Cd6          O12   2.433       .  S
Cd6          O11   2.465       .  S
Cd6           O7   2.437       .  S
Cd6          O10   2.496       .  S
Cd6           O8   2.438       .  S
C9           O13   1.263       .  A
C9          C368   1.487       .  S
O14          C17   1.265       .  A
O14         Cd19   2.441       .  S
C15          O20   1.266       .  A
C15         O420   1.266       .  A
C15         C351   1.479       .  S
O16          C22   1.271       .  A
O16         Cd19   2.517       .  S
C17          O25   1.269       .  A
C17         C381   1.487       .  S
C18          O23   1.271       .  A
C18          O21   1.262       .  A
C18         C341   1.483       .  S
Cd19         O26   2.421       .  S
Cd19         O25   2.464       .  S
Cd19         O24   2.438       .  S
Cd19         O23   2.507       .  S
Cd19         O21   2.435       .  S
Cd19        O416   2.447   1_545  S
O20        Cd415   2.447       .  S
C22          O26   1.263       .  A
C22         C328   1.493       .  S
O24         C411   1.266   1_545  A
O27          C30   1.267       .  A
O27         Cd32   2.474       .  S
C28          O33   1.267       .  A
C28         O829   1.265       .  A
C28         C321   1.483       .  S
O29          C35   1.272       .  A
O29         Cd32   2.512       .  S
C30          O38   1.266       .  A
C30         C308   1.475       .  S
C31          O36   1.272       .  A
C31          O34   1.263       .  A
C31         C338   1.485       .  S
Cd32         O39   2.431   1_455  S
Cd32         O38   2.450       .  S
Cd32         O37   2.428   1_455  S
Cd32         O36   2.519       .  S
Cd32         O34   2.414       .  S
Cd32        O825   2.461   1_455  S
O33        Cd824   2.461       .  S
C35          O39   1.261   1_455  A
C35         C298   1.490   1_455  S
O37         C820   1.265       .  A
O40          C43   1.268       .  A
O40         Cd45   2.462       .  S
C41          O50   1.267       .  A
C41          O46   1.267       .  A
C41         C311   1.475       .  S
O42          C48   1.272       .  A
O42         Cd45   2.507       .  S
C43          O51   1.264       .  A
C43         C291   1.474       .  S
C44          O49   1.271       .  A
C44          O47   1.261       .  A
C44         C268   1.496       .  S
Cd45         O52   2.412       .  S
Cd45         O51   2.439       .  S
Cd45         O50   2.467       .  S
Cd45         O46   2.463       .  S
Cd45         O49   2.527       .  S
Cd45         O47   2.441       .  S
C48          O52   1.263       .  A
C48         C278   1.478       .  S
O53          C56   1.268       .  A
O53         Cd58   2.476       .  S
C54          O63   1.269       .  A
C54          O59   1.266       .  A
C54         C258   1.487       .  S
O55          C61   1.271       .  A
O55         Cd58   2.526       .  S
C56          O64   1.263       .  A
C56        C1183   1.486       .  S
C57          O62   1.273       .  A
C57          O60   1.261       .  A
C57         C238   1.497       .  S
Cd58         O65   2.427       .  S
Cd58         O64   2.428       .  S
Cd58         O63   2.463       .  S
Cd58         O59   2.431       .  S
Cd58         O62   2.532       .  S
Cd58         O60   2.440       .  S
C61          O65   1.262       .  A
C61         C251   1.491       .  S
O66          C69   1.265       .  A
O66        Cd467   2.449       .  S
C67          O76   1.267       .  A
C67          O72   1.267       .  A
C67         C261   1.475       .  S
O68          C74   1.271       .  A
O68         Cd71   2.510       .  S
C69         O473   1.265       .  A
C69         C218   1.479       .  S
C70          O75   1.270       .  A
C70          O73   1.265       .  A
C70         C228   1.496       .  S
Cd71         O78   2.431       .  S
Cd71         O77   2.433       .  S
Cd71         O76   2.448       .  S
Cd71         O72   2.451       .  S
Cd71         O75   2.512       .  S
Cd71         O73   2.453       .  S
Cd71        O462   2.449   1_545  S
C74          O78   1.261       .  A
C74         C281   1.488       .  S
O77         C465   1.265   1_545  A
O79          C82   1.264       .  A
O79         Cd84   2.428       .  S
C80          O85   1.266       .  A
C80         O485   1.265       .  A
C80         C318   1.477   1_565  S
O81          C87   1.269       .  A
O81         Cd84   2.498       .  S
C82          O90   1.268       .  A
C82         C211   1.482       .  S
C83          O88   1.268       .  A
C83          O86   1.262       .  A
C83         C201   1.483       .  S
Cd84         O91   2.443       .  S
Cd84         O90   2.459       .  S
Cd84         O89   2.417       .  S
Cd84         O88   2.496       .  S
Cd84         O86   2.444       .  S
Cd84        O481   2.461       .  S
O85        Cd480   2.461       .  S
C87          O91   1.263       .  A
C87         C331   1.487       .  S
O89         C476   1.265       .  A
O92          C95   1.268       .  A
O92         Cd97   2.444       .  S
C93         O102   1.265       .  A
C93          O98   1.266       .  A
C93         C191   1.487       .  S
O94         C100   1.272       .  A
O94         Cd97   2.504       .  S
C95         O103   1.267       .  A
C95         C208   1.474       .  S
C96         O101   1.270       .  A
C96          O99   1.263       .  A
C96         C248   1.487       .  S
Cd97        O104   2.431       .  S
Cd97        O103   2.448       .  S
Cd97        O102   2.450       .  S
Cd97         O98   2.464       .  S
Cd97        O101   2.511       .  S
Cd97         O99   2.423       .  S
C100        O104   1.263       .  A
C100        C358   1.488       .  S
O105        C108   1.267       .  A
O105       Cd902   2.462       .  S
C106        O115   1.266       .  A
C106        O111   1.268       .  A
C106        C178   1.488       .  S
O107        C113   1.271       .  A
O107       Cd110   2.521       .  S
C108        O908   1.266       .  A
C108        C188   1.482       .  S
C109        O114   1.272       .  A
C109        O112   1.262       .  A
C109        C241   1.492       .  S
Cd110       O117   2.441       .  S
Cd110       O116   2.439       .  S
Cd110       O115   2.452       .  S
Cd110       O111   2.460       .  S
Cd110       O114   2.525       .  S
Cd110       O112   2.447       .  S
Cd110       O897   2.462   1_455  S
C113        O117   1.263       .  A
C113        C371   1.488       .  S
O116        C900   1.266   1_455  A
O118        C121   1.268   1_565  A
O118       Cd519   2.469       .  S
C119        O128   1.266       .  A
C119        O124   1.266       .  A
C119        C181   1.474       .  S
O120        C126   1.270       .  A
O120       Cd123   2.525       .  S
C121        O525   1.265   1_545  A
C121        C288   1.480       .  S
C122        O127   1.270       .  A
C122        O125   1.265       .  A
C122        C231   1.493       .  S
Cd123       O130   2.426       .  S
Cd123       O129   2.431       .  S
Cd123       O128   2.459       .  S
Cd123       O124   2.455       .  S
Cd123       O127   2.512       .  S
Cd123       O125   2.457       .  S
Cd123       O514   2.469       .  S
C126        O130   1.262       .  A
C126        C168   1.489       .  S
O129        C517   1.265       .  A
O131        C134   1.266       .  A
O131       Cd136   2.434       .  S
C132        O141   1.266       .  A
C132        O137   1.266       .  A
C132        C221   1.478       .  S
O133        C139   1.271       .  A
O133       Cd136   2.503       .  S
C134        O142   1.267       .  A
C134        C158   1.479       .  S
C135        O140   1.271       .  A
C135        O138   1.263       .  A
C135        C171   1.483       .  S
Cd136       O143   2.452       .  S
Cd136       O142   2.456       .  S
Cd136       O141   2.431       .  S
Cd136       O137   2.452       .  S
Cd136       O140   2.512       .  S
Cd136       O138   2.429       .  S
C139        O143   1.262       .  A
C139        C271   1.487       .  S
O144        C147   1.266       .  A
O144       Cd149   2.433       .  S
C145        O154   1.267       .  A
C145        O150   1.266       .  A
C145       C1140   1.482       .  S
O146        C152   1.271       .  A
O146       Cd149   2.508       .  S
C147        O155   1.266       .  A
C147        C161   1.480       .  S
C148        O153   1.270       .  A
C148        O151   1.263       .  A
C148        C198   1.486       .  S
Cd149       O156   2.428       .  S
Cd149       O155   2.466       .  S
Cd149       O154   2.431       .  S
Cd149       O150   2.446       .  S
Cd149       O153   2.509       .  S
Cd149       O151   2.424       .  S
C152        O156   1.261       .  A
C152        C301   1.487       .  S
C157        C158   1.405       .  A
C157        C162   1.400       .  A
C157        H164   1.083       .  S
C158        C159   1.412       .  A
C159        C160   1.395       .  A
C159       Br166   1.922       .  S
C160        C161   1.404       .  A
C160        H165   1.083       .  S
C161        C162   1.413       .  A
C162       Br163   1.921       .  S
C167        C172   1.400       .  A
C167        C960   1.409       .  A
C167        H966   1.084       .  S
C168        C169   1.413       .  A
C168        C959   1.409   1_455  A
C169        C962   1.403   1_455  A
C169       Br176   1.920       .  S
C170        C171   1.407       .  A
C170        C961   1.403       .  A
C170        H175   1.084       .  S
C171        C172   1.409       .  A
C172       Br173   1.920       .  S
H174        C959   1.084       .  S
C177        C178   1.408       .  A
C177        C182   1.399       .  A
C177        H184   1.083       .  S
C178        C179   1.418       .  A
C179        C180   1.400       .  A
C179       Br186   1.922       .  S
C180        C181   1.400       .  A
C180        H185   1.084       .  S
C181        C182   1.408       .  A
C182       Br183   1.921       .  S
C187        C188   1.405   1_554  A
C187        C192   1.398       .  A
C187        H194   1.084       .  S
C188        C189   1.412       .  A
C189        C190   1.399       .  A
C189       Br196   1.922       .  S
C190        C191   1.408   1_556  A
C190        H195   1.083       .  S
C191        C192   1.415       .  A
C192       Br193   1.922       .  S
C197        C198   1.407       .  A
C197        C202   1.399       .  A
C197        H204   1.084       .  S
C198        C199   1.412       .  A
C199        C200   1.403       .  A
C199       Br206   1.920       .  S
C200        C201   1.407       .  A
C200        H205   1.084       .  S
C201        C202   1.411       .  A
C202       Br203   1.921       .  S
C207        C208   1.401       .  A
C207        C212   1.397       .  A
C207        H214   1.084       .  S
C208        C209   1.409       .  A
C209        C210   1.398       .  A
C209       Br216   1.920       .  S
C210        C211   1.407       .  A
C210        H215   1.083       .  S
C211        C212   1.416       .  A
C212       Br213   1.923       .  S
C217        C218   1.406       .  A
C217        C222   1.396       .  A
C217        H224   1.083       .  S
C218        C219   1.413       .  A
C219        C220   1.396       .  A
C219       Br226   1.922       .  S
C220        C221   1.405       .  A
C220        H225   1.084       .  S
C221        C222   1.412       .  A
C222       Br223   1.922       .  S
C227        C232   1.403       .  A
C227        C624   1.410       .  A
C227        H234   1.083       .  S
C228        C229   1.414       .  A
C228        C623   1.410   1_545  A
C229        C230   1.404       .  A
C229       Br236   1.920       .  S
C230        C627   1.408   1_545  A
C230        H235   1.083       .  S
C231        C232   1.412       .  A
C231        C626   1.408       .  A
C232       Br233   1.920       .  S
C237        C238   1.405       .  A
C237        C242   1.404       .  A
C237        H244   1.083       .  S
C238       C1031   1.421       .  A
C239        C240   1.404       .  A
C239       C1030   1.421   1_455  A
C239       Br246   1.923       .  S
C240        C241   1.402       .  A
C240        H245   1.083       .  S
C241       C1034   1.416   1_455  A
C242       C1033   1.416       .  A
C242       Br243   1.922       .  S
C247        C248   1.408       .  A
C247        C648   1.402       .  A
C247        H254   1.084       .  S
C248        C249   1.411   1_554  A
C249        C646   1.401       .  A
C249       Br256   1.921       .  S
C250        C251   1.409       .  A
C250        C645   1.401   1_545  A
C250        H255   1.083       .  S
C251        C252   1.413   1_556  A
C252        C643   1.402   1_545  A
C252       Br253   1.920       .  S
C257        C258   1.408       .  A
C257        C262   1.399       .  A
C257        H264   1.083       .  S
C258        C259   1.418       .  A
C259        C260   1.399       .  A
C259       Br266   1.923       .  S
C260        C261   1.401       .  A
C260        H265   1.084       .  S
C261        C262   1.407       .  A
C262       Br263   1.921       .  S
C267        C268   1.407       .  A
C267        C272   1.404       .  A
C267        H274   1.083       .  S
C268        C269   1.421       .  A
C269        C270   1.401       .  A
C269       Br276   1.923       .  S
C270        C271   1.400       .  A
C270        H275   1.084       .  S
C271        C272   1.415       .  A
C272       Br273   1.922       .  S
C277        C278   1.401       .  A
C277       C1074   1.402   1_455  A
C277        H284   1.084       .  S
C278       C1071   1.410   1_455  A
C279        C280   1.400       .  A
C279       C1070   1.410       .  A
C279       Br286   1.921       .  S
C280        C281   1.405       .  A
C280        H285   1.083       .  S
C281        C282   1.419       .  A
C282       C1069   1.402       .  A
C282       Br283   1.923       .  S
C287        C288   1.406       .  A
C287        C292   1.399       .  A
C287        H294   1.083       .  S
C288        C289   1.414       .  A
C289        C290   1.397       .  A
C289       Br296   1.922       .  S
C290        C291   1.400       .  A
C290        H295   1.084       .  S
C291        C292   1.411       .  A
C292       Br293   1.922       .  S
C297        C298   1.404   1_455  A
C297        C302   1.402       .  A
C297        H304   1.083       .  S
C298       C1091   1.419       .  A
C299        C300   1.400       .  A
C299       C1090   1.419       .  A
C299       Br306   1.923       .  S
C300        C301   1.402       .  A
C300        H305   1.083       .  S
C301       C1094   1.417       .  A
C302       C1093   1.417   1_455  A
C302       Br303   1.923       .  S
C307        C308   1.403       .  A
C307        C312   1.398       .  A
C307        H314   1.084       .  S
C308        C309   1.410       .  A
C309        C310   1.402       .  A
C309       Br316   1.919   1_455  S
C310        C311   1.405       .  A
C310        H315   1.084       .  S
C311        C312   1.408       .  A
C312       Br313   1.919       .  S
C317        C318   1.404       .  A
C317        C322   1.396       .  A
C317        H324   1.084   1_545  S
C318        C319   1.410       .  A
C319        C320   1.397       .  A
C319       Br326   1.922       .  S
C320        C321   1.408       .  A
C320        H325   1.083       .  S
C321        C322   1.414       .  A
C322       Br323   1.921       .  S
C327        C332   1.399       .  A
C327        C724   1.410       .  A
C327        H334   1.083       .  S
C328        C329   1.413       .  A
C328        C723   1.410   1_545  A
C329        C330   1.403       .  A
C329       Br336   1.920       .  S
C330        C727   1.409   1_545  A
C330        H335   1.084       .  S
C331        C332   1.409       .  A
C331        C726   1.409       .  A
C332       Br333   1.921       .  S
C337        C338   1.404       .  A
C337        C342   1.404       .  A
C337        H344   1.083       .  S
C338        C339   1.414       .  A
C339        C340   1.400       .  A
C339       Br346   1.922       .  S
C340        C341   1.402       .  A
C340        H345   1.083       .  S
C341        C342   1.414       .  A
C342       Br343   1.921       .  S
C347        C348   1.406       .  A
C347        C352   1.395       .  A
C347        H354   1.083       .  S
C348        C937   1.482   1_455  S
C348        C349   1.415       .  A
C349        C350   1.398       .  A
C349      Br1148   1.923       .  S
C350        C351   1.405       .  A
C350        H355   1.084       .  S
C351        C352   1.411       .  A
C352       Br353   1.922       .  S
Br356      C1141   1.923       .  S
C357        C358   1.404       .  A
C357        C362   1.402       .  A
C357        H364   1.083       .  S
C358        C359   1.418       .  A
C359        C360   1.400       .  A
C359       Br366   1.922       .  S
C360        C361   1.401       .  A
C360        H365   1.084       .  S
C361        C362   1.416       .  A
C362       Br363   1.922       .  S
C367        C372   1.402       .  A
C367        C764   1.408       .  A
C367        H770   1.084       .  S
C368        C369   1.411   1_554  A
C368        C763   1.408   1_545  A
C369        C766   1.403   1_545  A
C369       Br376   1.920       .  S
C370        C371   1.408       .  A
C370        C765   1.403       .  A
C370        H375   1.084       .  S
C371        C372   1.411   1_556  A
C372       Br373   1.920       .  S
H374        C763   1.084       .  S
C377        C378   1.402       .  A
C377        C382   1.397       .  A
C377        H384   1.084       .  S
C378        C379   1.410       .  A
C379        C380   1.401       .  A
C379       Br386   1.920       .  S
C380        C381   1.408       .  A
C380        H385   1.083       .  S
C381        C382   1.417       .  A
C382       Br383   1.923       .  S
C387        C388   1.403       .  A
C387        C392   1.396       .  A
C387        H394   1.084       .  S
C388        C389   1.415   1_554  A
C389        C390   1.399       .  A
C389       Br396   1.923       .  S
C390        C391   1.406       .  A
C390        H395   1.083       .  S
C391        C848   1.486   1_455  S
C391        C392   1.417   1_556  A
C392       Br393   1.923   1_455  S
O397        C400   1.269       .  A
O397       Cd402   2.451       .  S
C398        O407   1.267       .  A
C398        O403   1.267       .  A
C398        C774   1.478       .  S
O399        C405   1.272       .  A
O399       Cd402   2.521       .  S
C400        O408   1.264       .  A
C400        C784   1.482       .  S
C401        O406   1.272       .  A
C401        O404   1.263       .  A
C401        C757   1.485       .  S
Cd402       O409   2.424       .  S
Cd402       O408   2.433       .  S
Cd402       O407   2.465       .  S
Cd402       O403   2.437       .  S
Cd402       O406   2.496       .  S
Cd402       O404   2.438       .  S
C405        O409   1.263       .  A
C405        C764   1.487       .  S
O410        C413   1.265       .  A
O410       Cd415   2.441       .  S
C411        O416   1.266       .  A
C411        C747   1.479       .  S
O412        C418   1.271       .  A
O412       Cd415   2.517       .  S
C413        O421   1.269       .  A
C413        C777   1.487       .  S
C414        O419   1.271       .  A
C414        O417   1.262       .  A
C414        C737   1.483       .  S
Cd415       O422   2.421       .  S
Cd415       O421   2.464       .  S
Cd415       O420   2.438       .  S
Cd415       O419   2.507       .  S
Cd415       O417   2.435       .  S
C418        O422   1.263       .  A
C418        C724   1.493       .  S
O423        C426   1.267       .  A
O423       Cd428   2.474       .  S
C424       O1225   1.265       .  A
C424        O429   1.267       .  A
C424        C717   1.483       .  S
O425        C431   1.272       .  A
O425       Cd428   2.512       .  S
C426        O434   1.266       .  A
C426        C704   1.475       .  S
C427        O432   1.272       .  A
C427        O430   1.263       .  A
C427        C734   1.485       .  S
Cd428       O435   2.431   1_455  S
Cd428       O434   2.450       .  S
Cd428       O433   2.428   1_455  S
Cd428      O1221   2.461   1_455  S
Cd428       O432   2.519       .  S
Cd428       O430   2.414       .  S
O429      Cd1220   2.461       .  S
C431        O435   1.261   1_455  A
C431        C694   1.490   1_455  S
O433       C1216   1.265       .  A
O436        C439   1.268       .  A
O436       Cd441   2.462       .  S
C437        O446   1.267       .  A
C437        O442   1.267       .  A
C437        C707   1.475       .  S
O438        C444   1.272       .  A
O438       Cd441   2.507       .  S
C439        O447   1.264       .  A
C439        C687   1.474       .  S
C440        O445   1.271       .  A
C440        O443   1.261       .  A
C440        C664   1.496       .  S
Cd441       O448   2.412       .  S
Cd441       O447   2.439       .  S
Cd441       O446   2.467       .  S
Cd441       O442   2.463       .  S
Cd441       O445   2.527       .  S
Cd441       O443   2.441       .  S
C444        O448   1.263       .  A
C444        C674   1.478       .  S
O449        C452   1.268       .  A
O449       Cd454   2.476       .  S
C450        O459   1.269       .  A
C450        O455   1.266       .  A
C450        C654   1.487       .  S
O451        C457   1.271       .  A
O451       Cd454   2.526       .  S
C452        O460   1.263       .  A
C452       C1579   1.486       .  S
C453        O458   1.273       .  A
C453        O456   1.261       .  A
C453        C634   1.497       .  S
Cd454       O461   2.427       .  S
Cd454       O460   2.428       .  S
Cd454       O459   2.463       .  S
Cd454       O455   2.431       .  S
Cd454       O458   2.532       .  S
Cd454       O456   2.440       .  S
C457        O461   1.262       .  A
C457        C647   1.491       .  S
O462        C465   1.265       .  A
C463        O472   1.267       .  A
C463        O468   1.267       .  A
C463        C657   1.475       .  S
O464        C470   1.271       .  A
O464       Cd467   2.510       .  S
C465        C614   1.479       .  S
C466        O471   1.270       .  A
C466        O469   1.265       .  A
C466        C624   1.496       .  S
Cd467       O474   2.431       .  S
Cd467       O473   2.433       .  S
Cd467       O472   2.448       .  S
Cd467       O468   2.451       .  S
Cd467       O471   2.512       .  S
Cd467       O469   2.453       .  S
C470        O474   1.261       .  A
C470        C677   1.488       .  S
O475        C478   1.264       .  A
O475       Cd480   2.428       .  S
C476        O481   1.266       .  A
C476        C714   1.477       .  S
O477        C483   1.269       .  A
O477       Cd480   2.498       .  S
C478        O486   1.268       .  A
C478        C607   1.482       .  S
C479        O484   1.268       .  A
C479        O482   1.262       .  A
C479        C597   1.483       .  S
Cd480       O487   2.443       .  S
Cd480       O486   2.459       .  S
Cd480       O485   2.417       .  S
Cd480       O484   2.496       .  S
Cd480       O482   2.444       .  S
C483        O487   1.263       .  A
C483        C727   1.487       .  S
O488        C491   1.268       .  A
O488       Cd493   2.444       .  S
C489        O498   1.265       .  A
C489        O494   1.266       .  A
C489        C587   1.487       .  S
O490        C496   1.272       .  A
O490       Cd493   2.504       .  S
C491        O499   1.267       .  A
C491        C604   1.474       .  S
C492        O497   1.270       .  A
C492        O495   1.263       .  A
C492        C644   1.487       .  S
Cd493       O500   2.431       .  S
Cd493       O499   2.448       .  S
Cd493       O498   2.450       .  S
Cd493       O494   2.464       .  S
Cd493       O497   2.511       .  S
Cd493       O495   2.423       .  S
C496        O500   1.263       .  A
C496        C754   1.488       .  S
O501        C504   1.267       .  A
O501      Cd1298   2.462       .  S
C502        O511   1.266       .  A
C502        O507   1.268       .  A
C502        C574   1.488       .  S
O503        C509   1.271       .  A
O503       Cd506   2.521       .  S
C504       O1304   1.266       .  A
C504        C584   1.482       .  S
C505        O510   1.272       .  A
C505        O508   1.262       .  A
C505        C637   1.492       .  S
Cd506      O1293   2.462   1_455  S
Cd506       O513   2.441       .  S
Cd506       O512   2.439       .  S
Cd506       O511   2.452       .  S
Cd506       O507   2.460       .  S
Cd506       O510   2.525       .  S
Cd506       O508   2.447       .  S
C509        O513   1.263       .  A
C509        C767   1.488       .  S
O512       C1296   1.266   1_455  A
O514        C517   1.268       .  A
C515        O524   1.266       .  A
C515        O520   1.266       .  A
C515        C577   1.474       .  S
O516        C522   1.270       .  A
O516       Cd519   2.525       .  S
C517        C684   1.480       .  S
C518        O523   1.270       .  A
C518        O521   1.265       .  A
C518        C627   1.493       .  S
Cd519       O526   2.426       .  S
Cd519       O525   2.431       .  S
Cd519       O524   2.459       .  S
Cd519       O520   2.455       .  S
Cd519       O523   2.512       .  S
Cd519       O521   2.457       .  S
C522        O526   1.262       .  A
C522        C564   1.489       .  S
O527        C530   1.266       .  A
O527       Cd532   2.434       .  S
C528        O537   1.266       .  A
C528        O533   1.266       .  A
C528        C617   1.478       .  S
O529        C535   1.271       .  A
O529       Cd532   2.503       .  S
C530        O538   1.267       .  A
C530        C554   1.479       .  S
C531        O536   1.271       .  A
C531        O534   1.263       .  A
C531        C567   1.483       .  S
Cd532       O539   2.452       .  S
Cd532       O538   2.456       .  S
Cd532       O537   2.431       .  S
Cd532       O533   2.452       .  S
Cd532       O536   2.512       .  S
Cd532       O534   2.429       .  S
C535        O539   1.262       .  A
C535        C667   1.487       .  S
O540        C543   1.266       .  A
O540       Cd545   2.433       .  S
C541        O550   1.267       .  A
C541        O546   1.266       .  A
C541       C1536   1.482       .  S
O542        C548   1.271       .  A
O542       Cd545   2.508       .  S
C543        O551   1.266       .  A
C543        C557   1.480       .  S
C544        O549   1.270       .  A
C544        O547   1.263       .  A
C544        C594   1.486       .  S
Cd545       O552   2.428       .  S
Cd545       O551   2.466       .  S
Cd545       O550   2.431       .  S
Cd545       O546   2.446       .  S
Cd545       O549   2.509       .  S
Cd545       O547   2.424       .  S
C548        O552   1.261       .  A
C548        C697   1.487       .  S
C553        C554   1.405       .  A
C553        C558   1.400       .  A
C553        H560   1.083       .  S
C554        C555   1.412       .  A
C555        C556   1.395       .  A
C555       Br562   1.922       .  S
C556        C557   1.404       .  A
C556        H561   1.083       .  S
C557        C558   1.413       .  A
C558       Br559   1.921       .  S
C563       C1356   1.409       .  A
C563        C568   1.400       .  A
C563       H1362   1.084       .  S
C564       C1355   1.409   1_455  A
C564        C565   1.413       .  A
C565       C1358   1.403   1_455  A
C565       Br572   1.920       .  S
C566       C1357   1.403       .  A
C566        C567   1.407       .  A
C566        H571   1.084       .  S
C567        C568   1.409       .  A
C568       Br569   1.920       .  S
H570       C1355   1.084       .  S
C573        C574   1.408       .  A
C573        C578   1.399       .  A
C573        H580   1.083       .  S
C574        C575   1.418       .  A
C575        C576   1.400       .  A
C575       Br582   1.922       .  S
C576        C577   1.400       .  A
C576        H581   1.084       .  S
C577        C578   1.408       .  A
C578       Br579   1.921       .  S
C583        C584   1.405   1_554  A
C583        C588   1.398       .  A
C583        H590   1.084       .  S
C584        C585   1.412       .  A
C585        C586   1.399       .  A
C585       Br592   1.922       .  S
C586        C587   1.408   1_556  A
C586        H591   1.083       .  S
C587        C588   1.415       .  A
C588       Br589   1.922       .  S
C593        C594   1.407       .  A
C593        C598   1.399       .  A
C593        H600   1.084       .  S
C594        C595   1.412       .  A
C595        C596   1.403       .  A
C595       Br602   1.920       .  S
C596        C597   1.407       .  A
C596        H601   1.084       .  S
C597        C598   1.411       .  A
C598       Br599   1.921       .  S
C603        C604   1.401       .  A
C603        C608   1.397       .  A
C603        H610   1.084       .  S
C604        C605   1.409       .  A
C605        C606   1.398       .  A
C605       Br612   1.920       .  S
C606        C607   1.407       .  A
C606        H611   1.083       .  S
C607        C608   1.416       .  A
C608       Br609   1.923       .  S
C613        C614   1.406       .  A
C613        C618   1.396       .  A
C613        H620   1.083       .  S
C614        C615   1.413       .  A
C615        C616   1.396       .  A
C615       Br622   1.922       .  S
C616        C617   1.405       .  A
C616        H621   1.084       .  S
C617        C618   1.412       .  A
C618       Br619   1.922       .  S
C623        C628   1.403       .  A
C623        H630   1.083       .  S
C624        C625   1.414       .  A
C625        C626   1.404       .  A
C625       Br632   1.920       .  S
C626        H631   1.083       .  S
C627        C628   1.412       .  A
C628       Br629   1.920       .  S
C633        C634   1.405       .  A
C633        C638   1.404       .  A
C633        H640   1.083       .  S
C634       C1427   1.421       .  A
C635       C1426   1.421   1_455  A
C635        C636   1.404       .  A
C635       Br642   1.923       .  S
C636        C637   1.402       .  A
C636        H641   1.083       .  S
C637       C1430   1.416   1_455  A
C638       C1429   1.416       .  A
C638       Br639   1.922       .  S
C643        C644   1.408       .  A
C643        H650   1.084       .  S
C644        C645   1.411   1_554  A
C645       Br652   1.921       .  S
C646        C647   1.409       .  A
C646        H651   1.083       .  S
C647        C648   1.413   1_556  A
C648       Br649   1.920       .  S
C653        C654   1.408       .  A
C653        C658   1.399       .  A
C653        H660   1.083       .  S
C654        C655   1.418       .  A
C655        C656   1.399       .  A
C655       Br662   1.923       .  S
C656        C657   1.401       .  A
C656        H661   1.084       .  S
C657        C658   1.407       .  A
C658       Br659   1.921       .  S
C663        C664   1.407       .  A
C663        C668   1.404       .  A
C663        H670   1.083       .  S
C664        C665   1.421       .  A
C665        C666   1.401       .  A
C665       Br672   1.923       .  S
C666        C667   1.400       .  A
C666        H671   1.084       .  S
C667        C668   1.415       .  A
C668       Br669   1.922       .  S
C673        C674   1.401       .  A
C673       C1470   1.402   1_455  A
C673        H680   1.084       .  S
C674       C1467   1.410   1_455  A
C675       C1466   1.410       .  A
C675        C676   1.400       .  A
C675       Br682   1.921       .  S
C676        C677   1.405       .  A
C676        H681   1.083       .  S
C677        C678   1.419       .  A
C678       C1465   1.402       .  A
C678       Br679   1.923       .  S
C683        C684   1.406       .  A
C683        C688   1.399       .  A
C683        H690   1.083       .  S
C684        C685   1.414       .  A
C685        C686   1.397       .  A
C685       Br692   1.922       .  S
C686        C687   1.400       .  A
C686        H691   1.084       .  S
C687        C688   1.411       .  A
C688       Br689   1.922       .  S
C693        C694   1.404   1_455  A
C693        C698   1.402       .  A
C693        H700   1.083       .  S
C694       C1487   1.419       .  A
C695       C1486   1.419       .  A
C695        C696   1.400       .  A
C695       Br702   1.923       .  S
C696        C697   1.402       .  A
C696        H701   1.083       .  S
C697       C1490   1.417       .  A
C698       C1489   1.417   1_455  A
C698       Br699   1.923       .  S
C703        C704   1.403       .  A
C703        C708   1.398       .  A
C703        H710   1.084       .  S
C704        C705   1.410       .  A
C705        C706   1.402       .  A
C705       Br712   1.919   1_455  S
C706        C707   1.405       .  A
C706        H711   1.084       .  S
C707        C708   1.408       .  A
C708       Br709   1.919       .  S
C713        C714   1.404       .  A
C713        C718   1.396       .  A
C713        H720   1.084       .  S
C714        C715   1.410       .  A
C715        C716   1.397       .  A
C715       Br722   1.922       .  S
C716        C717   1.408       .  A
C716        H721   1.083       .  S
C717        C718   1.414       .  A
C718       Br719   1.921       .  S
C723        C728   1.399       .  A
C723        H730   1.083       .  S
C724        C725   1.413       .  A
C725        C726   1.403       .  A
C725       Br732   1.920       .  S
C726        H731   1.084       .  S
C727        C728   1.409       .  A
C728       Br729   1.921       .  S
C733        C734   1.404       .  A
C733        C738   1.404       .  A
C733        H740   1.083       .  S
C734        C735   1.414       .  A
C735        C736   1.400       .  A
C735       Br742   1.922       .  S
C736        C737   1.402       .  A
C736        H741   1.083       .  S
C737        C738   1.414       .  A
C738       Br739   1.921       .  S
C743        C744   1.406       .  A
C743        C748   1.395       .  A
C743        H750   1.083       .  S
C744       C1333   1.482   1_455  S
C744        C745   1.415       .  A
C745        C746   1.398       .  A
C745      Br1544   1.923       .  S
C746        C747   1.405       .  A
C746        H751   1.084       .  S
C747        C748   1.411       .  A
C748       Br749   1.922       .  S
Br752      C1537   1.923       .  S
C753        C754   1.404       .  A
C753        C758   1.402       .  A
C753        H760   1.083       .  S
C754        C755   1.418       .  A
C755        C756   1.400       .  A
C755       Br762   1.922       .  S
C756        C757   1.401       .  A
C756        H761   1.084       .  S
C757        C758   1.416       .  A
C758       Br759   1.922       .  S
C763        C768   1.402       .  A
C764        C765   1.411   1_554  A
C765       Br772   1.920       .  S
C766        C767   1.408       .  A
C766        H771   1.084       .  S
C767        C768   1.411   1_556  A
C768       Br769   1.920       .  S
C773        C774   1.402       .  A
C773        C778   1.397       .  A
C773        H780   1.084       .  S
C774        C775   1.410       .  A
C775        C776   1.401       .  A
C775       Br782   1.920       .  S
C776        C777   1.408       .  A
C776        H781   1.083       .  S
C777        C778   1.417       .  A
C778       Br779   1.923       .  S
C783        C784   1.403       .  A
C783        C788   1.396       .  A
C783        H790   1.084       .  S
C784        C785   1.415   1_554  A
C785        C786   1.399       .  A
C785       Br792   1.923       .  S
C786        C787   1.406       .  A
C786        H791   1.083       .  S
C787       C1244   1.486   1_455  S
C787        C788   1.417   1_556  A
C788       Br789   1.923   1_455  S
O793        C796   1.269       .  A
O793       Cd798   2.451       .  S
C794        O803   1.267       .  A
C794        O799   1.267       .  A
C794       C1170   1.478       .  S
O795        C801   1.272       .  A
O795       Cd798   2.521       .  S
C796        O804   1.264       .  A
C796       C1180   1.482       .  S
C797        O802   1.272       .  A
C797        O800   1.263       .  A
C797       C1153   1.485       .  S
Cd798       O805   2.424       .  S
Cd798       O804   2.433       .  S
Cd798       O803   2.465       .  S
Cd798       O799   2.437       .  S
Cd798       O802   2.496       .  S
Cd798       O800   2.438       .  S
C801        O805   1.263       .  A
C801       C1160   1.487       .  S
O806        C809   1.265       .  A
O806       Cd811   2.441       .  S
C807       O1212   1.266       .  A
C807        O812   1.266       .  A
C807       C1143   1.479       .  S
O808        C814   1.271       .  A
O808       Cd811   2.517       .  S
C809        O817   1.269       .  A
C809       C1173   1.487       .  S
C810        O815   1.271       .  A
C810        O813   1.262       .  A
C810       C1133   1.483       .  S
Cd811       O818   2.421       .  S
Cd811       O817   2.464       .  S
Cd811       O816   2.438       .  S
Cd811      O1208   2.447   1_545  S
Cd811       O815   2.507       .  S
Cd811       O813   2.435       .  S
O812      Cd1207   2.447       .  S
C814        O818   1.263       .  A
C814       C1120   1.493       .  S
O816       C1203   1.266   1_545  A
O819        C822   1.267       .  A
O819       Cd824   2.474       .  S
C820        O825   1.267       .  A
C820       C1113   1.483       .  S
O821        C827   1.272       .  A
O821       Cd824   2.512       .  S
C822        O830   1.266       .  A
C822       C1100   1.475       .  S
C823        O828   1.272       .  A
C823        O826   1.263       .  A
C823       C1130   1.485       .  S
Cd824       O831   2.431       .  S
Cd824       O830   2.450       .  S
Cd824       O829   2.428       .  S
Cd824       O828   2.519       .  S
Cd824       O826   2.414       .  S
C827        O831   1.261       .  A
C827       C1090   1.490       .  S
O832        C835   1.268       .  A
O832       Cd837   2.462       .  S
C833        O842   1.267       .  A
C833        O838   1.267       .  A
C833       C1103   1.475       .  S
O834        C840   1.272       .  A
O834       Cd837   2.507       .  S
C835        O843   1.264       .  A
C835       C1083   1.474       .  S
C836        O841   1.271       .  A
C836        O839   1.261       .  A
C836       C1060   1.496       .  S
Cd837       O844   2.412       .  S
Cd837       O843   2.439       .  S
Cd837       O842   2.467       .  S
Cd837       O838   2.463       .  S
Cd837       O841   2.527       .  S
Cd837       O839   2.441       .  S
C840        O844   1.263       .  A
C840       C1070   1.478       .  S
O845        C848   1.268       .  A
O845       Cd850   2.476       .  S
C846        O855   1.269       .  A
C846        O851   1.266       .  A
C846       C1050   1.487       .  S
O847        C853   1.271       .  A
O847       Cd850   2.526       .  S
C848        O856   1.263       .  A
C849        O854   1.273       .  A
C849        O852   1.261       .  A
C849       C1030   1.497       .  S
Cd850       O857   2.427       .  S
Cd850       O856   2.428       .  S
Cd850       O855   2.463       .  S
Cd850       O851   2.431       .  S
Cd850       O854   2.532       .  S
Cd850       O852   2.440       .  S
C853        O857   1.262       .  A
C853       C1043   1.491       .  S
O858        C861   1.265       .  A
O858      Cd1259   2.449       .  S
C859        O868   1.267       .  A
C859        O864   1.267       .  A
C859       C1053   1.475       .  S
O860        C866   1.271       .  A
O860       Cd863   2.510       .  S
C861       O1265   1.265       .  A
C861       C1010   1.479       .  S
C862        O867   1.270       .  A
C862        O865   1.265       .  A
C862       C1020   1.496       .  S
Cd863      O1254   2.449   1_545  S
Cd863       O870   2.431       .  S
Cd863       O869   2.433       .  S
Cd863       O868   2.448       .  S
Cd863       O864   2.451       .  S
Cd863       O867   2.512       .  S
Cd863       O865   2.453       .  S
C866        O870   1.261       .  A
C866       C1073   1.488       .  S
O869       C1257   1.265   1_545  A
O871        C874   1.264       .  A
O871       Cd876   2.428       .  S
C872       O1277   1.265       .  A
C872        O877   1.266       .  A
C872       C1110   1.477   1_565  S
O873        C879   1.269       .  A
O873       Cd876   2.498       .  S
C874        O882   1.268       .  A
C874       C1003   1.482       .  S
C875        O880   1.268       .  A
C875        O878   1.262       .  A
C875        C993   1.483       .  S
Cd876       O883   2.443       .  S
Cd876       O882   2.459       .  S
Cd876       O881   2.417       .  S
Cd876      O1273   2.461       .  S
Cd876       O880   2.496       .  S
Cd876       O878   2.444       .  S
O877      Cd1272   2.461       .  S
C879        O883   1.263       .  A
C879       C1123   1.487       .  S
O881       C1268   1.265       .  A
O884        C887   1.268       .  A
O884       Cd889   2.444       .  S
C885        O894   1.265       .  A
C885        O890   1.266       .  A
C885        C983   1.487       .  S
O886        C892   1.272       .  A
O886       Cd889   2.504       .  S
C887        O895   1.267       .  A
C887       C1000   1.474       .  S
C888        O893   1.270       .  A
C888        O891   1.263       .  A
C888       C1040   1.487       .  S
Cd889       O896   2.431       .  S
Cd889       O895   2.448       .  S
Cd889       O894   2.450       .  S
Cd889       O890   2.464       .  S
Cd889       O893   2.511       .  S
Cd889       O891   2.423       .  S
C892        O896   1.263       .  A
C892       C1150   1.488       .  S
O897        C900   1.267       .  A
C898        O907   1.266       .  A
C898        O903   1.268       .  A
C898        C970   1.488       .  S
O899        C905   1.271       .  A
O899       Cd902   2.521       .  S
C900        C980   1.482       .  S
C901        O906   1.272       .  A
C901        O904   1.262       .  A
C901       C1033   1.492       .  S
Cd902       O909   2.441       .  S
Cd902       O908   2.439       .  S
Cd902       O907   2.452       .  S
Cd902       O903   2.460       .  S
Cd902       O906   2.525       .  S
Cd902       O904   2.447       .  S
C905        O909   1.263       .  A
C905       C1163   1.488       .  S
O910        C913   1.268   1_565  A
O910      Cd1311   2.469       .  S
C911        O920   1.266       .  A
C911        O916   1.266       .  A
C911        C973   1.474       .  S
O912        C918   1.270       .  A
O912       Cd915   2.525       .  S
C913       O1317   1.265   1_545  A
C913       C1080   1.480       .  S
C914        O919   1.270       .  A
C914        O917   1.265       .  A
C914       C1023   1.493       .  S
Cd915      O1306   2.469       .  S
Cd915       O922   2.426       .  S
Cd915       O921   2.431       .  S
Cd915       O920   2.459       .  S
Cd915       O916   2.455       .  S
Cd915       O919   2.512       .  S
Cd915       O917   2.457       .  S
C918        O922   1.262       .  A
C918        C960   1.489       .  S
O921       C1309   1.265       .  A
O923        C926   1.266       .  A
O923       Cd928   2.434       .  S
C924        O933   1.266       .  A
C924        O929   1.266       .  A
C924       C1013   1.478       .  S
O925        C931   1.271       .  A
O925       Cd928   2.503       .  S
C926        O934   1.267       .  A
C926        C950   1.479       .  S
C927        O932   1.271       .  A
C927        O930   1.263       .  A
C927        C963   1.483       .  S
Cd928       O935   2.452       .  S
Cd928       O934   2.456       .  S
Cd928       O933   2.431       .  S
Cd928       O929   2.452       .  S
Cd928       O932   2.512       .  S
Cd928       O930   2.429       .  S
C931        O935   1.262       .  A
C931       C1063   1.487       .  S
O936        C939   1.266       .  A
O936       Cd941   2.433       .  S
C937        O946   1.267       .  A
C937        O942   1.266       .  A
O938        C944   1.271       .  A
O938       Cd941   2.508       .  S
C939        O947   1.266       .  A
C939        C953   1.480       .  S
C940        O945   1.270       .  A
C940        O943   1.263       .  A
C940        C990   1.486       .  S
Cd941       O948   2.428       .  S
Cd941       O947   2.466       .  S
Cd941       O946   2.431       .  S
Cd941       O942   2.446       .  S
Cd941       O945   2.509       .  S
Cd941       O943   2.424       .  S
C944        O948   1.261       .  A
C944       C1093   1.487       .  S
C949        C950   1.405       .  A
C949        C954   1.400       .  A
C949        H956   1.083       .  S
C950        C951   1.412       .  A
C951        C952   1.395       .  A
C951       Br958   1.922       .  S
C952        C953   1.404       .  A
C952        H957   1.083       .  S
C953        C954   1.413       .  A
C954       Br955   1.921       .  S
C959        C964   1.400       .  A
C960        C961   1.413       .  A
C961       Br968   1.920       .  S
C962        C963   1.407       .  A
C962        H967   1.084       .  S
C963        C964   1.409       .  A
C964       Br965   1.920       .  S
C969        C970   1.408       .  A
C969        C974   1.399       .  A
C969        H976   1.083       .  S
C970        C971   1.418       .  A
C971        C972   1.400       .  A
C971       Br978   1.922       .  S
C972        C973   1.400       .  A
C972        H977   1.084       .  S
C973        C974   1.408       .  A
C974       Br975   1.921       .  S
C979        C980   1.405   1_554  A
C979        C984   1.398       .  A
C979        H986   1.084       .  S
C980        C981   1.412       .  A
C981        C982   1.399       .  A
C981       Br988   1.922       .  S
C982        C983   1.408   1_556  A
C982        H987   1.083       .  S
C983        C984   1.415       .  A
C984       Br985   1.922       .  S
C989        C990   1.407       .  A
C989        C994   1.399       .  A
C989        H996   1.084       .  S
C990        C991   1.412       .  A
C991        C992   1.403       .  A
C991       Br998   1.920       .  S
C992        C993   1.407       .  A
C992        H997   1.084       .  S
C993        C994   1.411       .  A
C994       Br995   1.921       .  S
C999       C1000   1.401       .  A
C999       C1004   1.397       .  A
C999       H1006   1.084       .  S
C1000      C1001   1.409       .  A
C1001      C1002   1.398       .  A
C1001     Br1008   1.920       .  S
C1002      C1003   1.407       .  A
C1002      H1007   1.083       .  S
C1003      C1004   1.416       .  A
C1004     Br1005   1.923       .  S
C1009      C1010   1.406       .  A
C1009      C1014   1.396       .  A
C1009      H1016   1.083       .  S
C1010      C1011   1.413       .  A
C1011      C1012   1.396       .  A
C1011     Br1018   1.922       .  S
C1012      C1013   1.405       .  A
C1012      H1017   1.084       .  S
C1013      C1014   1.412       .  A
C1014     Br1015   1.922       .  S
C1019      C1416   1.410       .  A
C1019      C1024   1.403       .  A
C1019      H1026   1.083       .  S
C1020      C1415   1.410   1_545  A
C1020      C1021   1.414       .  A
C1021      C1022   1.404       .  A
C1021     Br1028   1.920       .  S
C1022      C1419   1.408   1_545  A
C1022      H1027   1.083       .  S
C1023      C1418   1.408       .  A
C1023      C1024   1.412       .  A
C1024     Br1025   1.920       .  S
C1029      C1030   1.405       .  A
C1029      C1034   1.404       .  A
C1029      H1036   1.083       .  S
C1031      C1032   1.404       .  A
C1031     Br1038   1.923       .  S
C1032      C1033   1.402       .  A
C1032      H1037   1.083       .  S
C1034     Br1035   1.922       .  S
C1039      C1040   1.408       .  A
C1039      C1440   1.402       .  A
C1039      H1046   1.084       .  S
C1040      C1041   1.411   1_554  A
C1041      C1438   1.401       .  A
C1041     Br1048   1.921       .  S
C1042      C1437   1.401   1_545  A
C1042      C1043   1.409       .  A
C1042      H1047   1.083       .  S
C1043      C1044   1.413   1_556  A
C1044      C1435   1.402   1_545  A
C1044     Br1045   1.920       .  S
C1049      C1050   1.408       .  A
C1049      C1054   1.399       .  A
C1049      H1056   1.083       .  S
C1050      C1051   1.418       .  A
C1051      C1052   1.399       .  A
C1051     Br1058   1.923       .  S
C1052      C1053   1.401       .  A
C1052      H1057   1.084       .  S
C1053      C1054   1.407       .  A
C1054     Br1055   1.921       .  S
C1059      C1060   1.407       .  A
C1059      C1064   1.404       .  A
C1059      H1066   1.083       .  S
C1060      C1061   1.421       .  A
C1061      C1062   1.401       .  A
C1061     Br1068   1.923       .  S
C1062      C1063   1.400       .  A
C1062      H1067   1.084       .  S
C1063      C1064   1.415       .  A
C1064     Br1065   1.922       .  S
C1069      C1070   1.401       .  A
C1069      H1076   1.084       .  S
C1071      C1072   1.400       .  A
C1071     Br1078   1.921       .  S
C1072      C1073   1.405       .  A
C1072      H1077   1.083       .  S
C1073      C1074   1.419       .  A
C1074     Br1075   1.923   1_655  S
C1079      C1080   1.406       .  A
C1079      C1084   1.399       .  A
C1079      H1086   1.083       .  S
C1080      C1081   1.414       .  A
C1081      C1082   1.397       .  A
C1081     Br1088   1.922       .  S
C1082      C1083   1.400       .  A
C1082      H1087   1.084       .  S
C1083      C1084   1.411       .  A
C1084     Br1085   1.922       .  S
C1089      C1090   1.404       .  A
C1089      C1094   1.402       .  A
C1089      H1096   1.083       .  S
C1091      C1092   1.400       .  A
C1091     Br1098   1.923       .  S
C1092      C1093   1.402       .  A
C1092      H1097   1.083       .  S
C1094     Br1095   1.923       .  S
C1099      C1100   1.403       .  A
C1099      C1104   1.398       .  A
C1099      H1106   1.084       .  S
C1100      C1101   1.410       .  A
C1101      C1102   1.402       .  A
C1101     Br1108   1.919       .  S
C1102      C1103   1.405       .  A
C1102      H1107   1.084       .  S
C1103      C1104   1.408       .  A
C1104     Br1105   1.919       .  S
C1109      C1110   1.404       .  A
C1109      C1114   1.396       .  A
C1109      H1116   1.084   1_545  S
C1110      C1111   1.410       .  A
C1111      C1112   1.397       .  A
C1111     Br1118   1.922       .  S
C1112      C1113   1.408       .  A
C1112      H1117   1.083       .  S
C1113      C1114   1.414       .  A
C1114     Br1115   1.921       .  S
C1119      C1516   1.410       .  A
C1119      C1124   1.399       .  A
C1119      H1126   1.083       .  S
C1120      C1515   1.410   1_545  A
C1120      C1121   1.413       .  A
C1121      C1122   1.403       .  A
C1121     Br1128   1.920       .  S
C1122      C1519   1.409   1_545  A
C1122      H1127   1.084       .  S
C1123      C1518   1.409       .  A
C1123      C1124   1.409       .  A
C1124     Br1125   1.921       .  S
C1129      C1130   1.404       .  A
C1129      C1134   1.404       .  A
C1129      H1136   1.083       .  S
C1130      C1131   1.414       .  A
C1131      C1132   1.400       .  A
C1131     Br1138   1.922       .  S
C1132      C1133   1.402       .  A
C1132      H1137   1.083       .  S
C1133      C1134   1.414       .  A
C1134     Br1135   1.921       .  S
C1139      C1140   1.406       .  A
C1139      C1144   1.395       .  A
C1139      H1146   1.083       .  S
C1140      C1141   1.415       .  A
C1141      C1142   1.398       .  A
C1142      C1143   1.405       .  A
C1142      H1147   1.084       .  S
C1143      C1144   1.411       .  A
C1144     Br1145   1.922       .  S
C1149      C1150   1.404       .  A
C1149      C1154   1.402       .  A
C1149      H1156   1.083       .  S
C1150      C1151   1.418       .  A
C1151      C1152   1.400       .  A
C1151     Br1158   1.922       .  S
C1152      C1153   1.401       .  A
C1152      H1157   1.084       .  S
C1153      C1154   1.416       .  A
C1154     Br1155   1.922       .  S
C1159      C1556   1.408       .  A
C1159      C1164   1.402       .  A
C1159      H1562   1.084       .  S
C1160      C1555   1.408   1_545  A
C1160      C1161   1.411   1_554  A
C1161      C1558   1.403   1_545  A
C1161     Br1168   1.920       .  S
C1162      C1557   1.403       .  A
C1162      C1163   1.408       .  A
C1162      H1167   1.084       .  S
C1163      C1164   1.411   1_556  A
C1164     Br1165   1.920       .  S
H1166      C1555   1.084       .  S
C1169      C1170   1.402       .  A
C1169      C1174   1.397       .  A
C1169      H1176   1.084       .  S
C1170      C1171   1.410       .  A
C1171      C1172   1.401       .  A
C1171     Br1178   1.920       .  S
C1172      C1173   1.408       .  A
C1172      H1177   1.083       .  S
C1173      C1174   1.417       .  A
C1174     Br1175   1.923       .  S
C1179      C1180   1.403       .  A
C1179      C1184   1.396       .  A
C1179      H1186   1.084       .  S
C1180      C1181   1.415   1_554  A
C1181      C1182   1.399       .  A
C1181     Br1188   1.923       .  S
C1182      C1183   1.406       .  A
C1182      H1187   1.083       .  S
C1183      C1184   1.417   1_556  A
C1184     Br1185   1.923       .  S
O1189      C1192   1.269       .  A
O1189     Cd1194   2.451       .  S
C1190      O1199   1.267       .  A
C1190      O1195   1.267       .  A
C1190      C1566   1.478       .  S
O1191      C1197   1.272       .  A
O1191     Cd1194   2.521       .  S
C1192      O1200   1.264       .  A
C1192      C1576   1.482       .  S
C1193      O1198   1.272       .  A
C1193      O1196   1.263       .  A
C1193      C1549   1.485       .  S
Cd1194     O1201   2.424       .  S
Cd1194     O1200   2.433       .  S
Cd1194     O1199   2.465       .  S
Cd1194     O1195   2.437       .  S
Cd1194     O1198   2.496       .  S
Cd1194     O1196   2.438       .  S
C1197      O1201   1.263       .  A
C1197      C1556   1.487       .  S
O1202      C1205   1.265       .  A
O1202     Cd1207   2.441       .  S
C1203      O1208   1.266       .  A
C1203      C1539   1.479       .  S
O1204      C1210   1.271       .  A
O1204     Cd1207   2.517       .  S
C1205      O1213   1.269       .  A
C1205      C1569   1.487       .  S
C1206      O1211   1.271       .  A
C1206      O1209   1.262       .  A
C1206      C1529   1.483       .  S
Cd1207     O1214   2.421       .  S
Cd1207     O1213   2.464       .  S
Cd1207     O1212   2.438       .  S
Cd1207     O1211   2.507       .  S
Cd1207     O1209   2.435       .  S
C1210      O1214   1.263       .  A
C1210      C1516   1.493       .  S
O1215      C1218   1.267       .  A
O1215     Cd1220   2.474       .  S
C1216      O1221   1.267       .  A
C1216      C1509   1.483       .  S
O1217      C1223   1.272       .  A
O1217     Cd1220   2.512       .  S
C1218      O1226   1.266       .  A
C1218      C1496   1.475       .  S
C1219      O1224   1.272       .  A
C1219      O1222   1.263       .  A
C1219      C1526   1.485       .  S
Cd1220     O1227   2.431       .  S
Cd1220     O1226   2.450       .  S
Cd1220     O1225   2.428       .  S
Cd1220     O1224   2.519       .  S
Cd1220     O1222   2.414       .  S
C1223      O1227   1.261       .  A
C1223      C1486   1.490       .  S
O1228      C1231   1.268       .  A
O1228     Cd1233   2.462       .  S
C1229      O1238   1.267       .  A
C1229      O1234   1.267       .  A
C1229      C1499   1.475       .  S
O1230      C1236   1.272       .  A
O1230     Cd1233   2.507       .  S
C1231      O1239   1.264       .  A
C1231      C1479   1.474       .  S
C1232      O1237   1.271       .  A
C1232      O1235   1.261       .  A
C1232      C1456   1.496       .  S
Cd1233     O1240   2.412       .  S
Cd1233     O1239   2.439       .  S
Cd1233     O1238   2.467       .  S
Cd1233     O1234   2.463       .  S
Cd1233     O1237   2.527       .  S
Cd1233     O1235   2.441       .  S
C1236      O1240   1.263       .  A
C1236      C1466   1.478       .  S
O1241      C1244   1.268       .  A
O1241     Cd1246   2.476       .  S
C1242      O1251   1.269       .  A
C1242      O1247   1.266       .  A
C1242      C1446   1.487       .  S
O1243      C1249   1.271       .  A
O1243     Cd1246   2.526       .  S
C1244      O1252   1.263       .  A
C1245      O1250   1.273       .  A
C1245      O1248   1.261       .  A
C1245      C1426   1.497       .  S
Cd1246     O1253   2.427       .  S
Cd1246     O1252   2.428       .  S
Cd1246     O1251   2.463       .  S
Cd1246     O1247   2.431       .  S
Cd1246     O1250   2.532       .  S
Cd1246     O1248   2.440       .  S
C1249      O1253   1.262       .  A
C1249      C1439   1.491       .  S
O1254      C1257   1.265       .  A
C1255      O1264   1.267       .  A
C1255      O1260   1.267       .  A
C1255      C1449   1.475       .  S
O1256      C1262   1.271       .  A
O1256     Cd1259   2.510       .  S
C1257      C1406   1.479       .  S
C1258      O1263   1.270       .  A
C1258      O1261   1.265       .  A
C1258      C1416   1.496       .  S
Cd1259     O1266   2.431       .  S
Cd1259     O1265   2.433       .  S
Cd1259     O1264   2.448       .  S
Cd1259     O1260   2.451       .  S
Cd1259     O1263   2.512       .  S
Cd1259     O1261   2.453       .  S
C1262      O1266   1.261       .  A
C1262      C1469   1.488       .  S
O1267      C1270   1.264       .  A
O1267     Cd1272   2.428       .  S
C1268      O1273   1.266       .  A
C1268      C1506   1.477       .  S
O1269      C1275   1.269       .  A
O1269     Cd1272   2.498       .  S
C1270      O1278   1.268       .  A
C1270      C1399   1.482       .  S
C1271      O1276   1.268       .  A
C1271      O1274   1.262       .  A
C1271      C1389   1.483       .  S
Cd1272     O1279   2.443       .  S
Cd1272     O1278   2.459       .  S
Cd1272     O1277   2.417       .  S
Cd1272     O1276   2.496       .  S
Cd1272     O1274   2.444       .  S
C1275      O1279   1.263       .  A
C1275      C1519   1.487       .  S
O1280      C1283   1.268       .  A
O1280     Cd1285   2.444       .  S
C1281      O1290   1.265       .  A
C1281      O1286   1.266       .  A
C1281      C1379   1.487       .  S
O1282      C1288   1.272       .  A
O1282     Cd1285   2.504       .  S
C1283      O1291   1.267       .  A
C1283      C1396   1.474       .  S
C1284      O1289   1.270       .  A
C1284      O1287   1.263       .  A
C1284      C1436   1.487       .  S
Cd1285     O1292   2.431       .  S
Cd1285     O1291   2.448       .  S
Cd1285     O1290   2.450       .  S
Cd1285     O1286   2.464       .  S
Cd1285     O1289   2.511       .  S
Cd1285     O1287   2.423       .  S
C1288      O1292   1.263       .  A
C1288      C1546   1.488       .  S
O1293      C1296   1.267       .  A
C1294      O1303   1.266       .  A
C1294      O1299   1.268       .  A
C1294      C1366   1.488       .  S
O1295      C1301   1.271       .  A
O1295     Cd1298   2.521       .  S
C1296      C1376   1.482       .  S
C1297      O1302   1.272       .  A
C1297      O1300   1.262       .  A
C1297      C1429   1.492       .  S
Cd1298     O1305   2.441       .  S
Cd1298     O1304   2.439       .  S
Cd1298     O1303   2.452       .  S
Cd1298     O1299   2.460       .  S
Cd1298     O1302   2.525       .  S
Cd1298     O1300   2.447       .  S
C1301      O1305   1.263       .  A
C1301      C1559   1.488       .  S
O1306      C1309   1.268       .  A
C1307      O1316   1.266       .  A
C1307      O1312   1.266       .  A
C1307      C1369   1.474       .  S
O1308      C1314   1.270       .  A
O1308     Cd1311   2.525       .  S
C1309      C1476   1.480       .  S
C1310      O1315   1.270       .  A
C1310      O1313   1.265       .  A
C1310      C1419   1.493       .  S
Cd1311     O1318   2.426       .  S
Cd1311     O1317   2.431       .  S
Cd1311     O1316   2.459       .  S
Cd1311     O1312   2.455       .  S
Cd1311     O1315   2.512       .  S
Cd1311     O1313   2.457       .  S
C1314      O1318   1.262       .  A
C1314      C1356   1.489       .  S
O1319      C1322   1.266       .  A
O1319     Cd1324   2.434       .  S
C1320      O1329   1.266       .  A
C1320      O1325   1.266       .  A
C1320      C1409   1.478       .  S
O1321      C1327   1.271       .  A
O1321     Cd1324   2.503       .  S
C1322      O1330   1.267       .  A
C1322      C1346   1.479       .  S
C1323      O1328   1.271       .  A
C1323      O1326   1.263       .  A
C1323      C1359   1.483       .  S
Cd1324     O1331   2.452       .  S
Cd1324     O1330   2.456       .  S
Cd1324     O1329   2.431       .  S
Cd1324     O1325   2.452       .  S
Cd1324     O1328   2.512       .  S
Cd1324     O1326   2.429       .  S
C1327      O1331   1.262       .  A
C1327      C1459   1.487       .  S
O1332      C1335   1.266       .  A
O1332     Cd1337   2.433       .  S
C1333      O1342   1.267       .  A
C1333      O1338   1.266       .  A
O1334      C1340   1.271       .  A
O1334     Cd1337   2.508       .  S
C1335      O1343   1.266       .  A
C1335      C1349   1.480       .  S
C1336      O1341   1.270       .  A
C1336      O1339   1.263       .  A
C1336      C1386   1.486       .  S
Cd1337     O1344   2.428       .  S
Cd1337     O1343   2.466       .  S
Cd1337     O1342   2.431       .  S
Cd1337     O1338   2.446       .  S
Cd1337     O1341   2.509       .  S
Cd1337     O1339   2.424       .  S
C1340      O1344   1.261       .  A
C1340      C1489   1.487       .  S
C1345      C1346   1.405       .  A
C1345      C1350   1.400       .  A
C1345      H1352   1.083       .  S
C1346      C1347   1.412       .  A
C1347      C1348   1.395       .  A
C1347     Br1354   1.922       .  S
C1348      C1349   1.404       .  A
C1348      H1353   1.083       .  S
C1349      C1350   1.413       .  A
C1350     Br1351   1.921       .  S
C1355      C1360   1.400       .  A
C1356      C1357   1.413       .  A
C1357     Br1364   1.920       .  S
C1358      C1359   1.407       .  A
C1358      H1363   1.084       .  S
C1359      C1360   1.409       .  A
C1360     Br1361   1.920       .  S
C1365      C1366   1.408       .  A
C1365      C1370   1.399       .  A
C1365      H1372   1.083       .  S
C1366      C1367   1.418       .  A
C1367      C1368   1.400       .  A
C1367     Br1374   1.922       .  S
C1368      C1369   1.400       .  A
C1368      H1373   1.084       .  S
C1369      C1370   1.408       .  A
C1370     Br1371   1.921       .  S
C1375      C1376   1.405   1_554  A
C1375      C1380   1.398       .  A
C1375      H1382   1.084       .  S
C1376      C1377   1.412       .  A
C1377      C1378   1.399       .  A
C1377     Br1384   1.922       .  S
C1378      C1379   1.408   1_556  A
C1378      H1383   1.083       .  S
C1379      C1380   1.415       .  A
C1380     Br1381   1.922       .  S
C1385      C1386   1.407       .  A
C1385      C1390   1.399       .  A
C1385      H1392   1.084       .  S
C1386      C1387   1.412       .  A
C1387      C1388   1.403       .  A
C1387     Br1394   1.920       .  S
C1388      C1389   1.407       .  A
C1388      H1393   1.084       .  S
C1389      C1390   1.411       .  A
C1390     Br1391   1.921       .  S
C1395      C1396   1.401       .  A
C1395      C1400   1.397       .  A
C1395      H1402   1.084       .  S
C1396      C1397   1.409       .  A
C1397      C1398   1.398       .  A
C1397     Br1404   1.920       .  S
C1398      C1399   1.407       .  A
C1398      H1403   1.083       .  S
C1399      C1400   1.416       .  A
C1400     Br1401   1.923       .  S
C1405      C1406   1.406       .  A
C1405      C1410   1.396       .  A
C1405      H1412   1.083       .  S
C1406      C1407   1.413       .  A
C1407      C1408   1.396       .  A
C1407     Br1414   1.922       .  S
C1408      C1409   1.405       .  A
C1408      H1413   1.084       .  S
C1409      C1410   1.412       .  A
C1410     Br1411   1.922       .  S
C1415      C1420   1.403       .  A
C1415      H1422   1.083       .  S
C1416      C1417   1.414       .  A
C1417      C1418   1.404       .  A
C1417     Br1424   1.920       .  S
C1418      H1423   1.083       .  S
C1419      C1420   1.412       .  A
C1420     Br1421   1.920       .  S
C1425      C1426   1.405       .  A
C1425      C1430   1.404       .  A
C1425      H1432   1.083       .  S
C1427      C1428   1.404       .  A
C1427     Br1434   1.923       .  S
C1428      C1429   1.402       .  A
C1428      H1433   1.083       .  S
C1430     Br1431   1.922       .  S
C1435      C1436   1.408       .  A
C1435      H1442   1.084       .  S
C1436      C1437   1.411   1_554  A
C1437     Br1444   1.921       .  S
C1438      C1439   1.409       .  A
C1438      H1443   1.083       .  S
C1439      C1440   1.413   1_556  A
C1440     Br1441   1.920       .  S
C1445      C1446   1.408       .  A
C1445      C1450   1.399       .  A
C1445      H1452   1.083       .  S
C1446      C1447   1.418       .  A
C1447      C1448   1.399       .  A
C1447     Br1454   1.923       .  S
C1448      C1449   1.401       .  A
C1448      H1453   1.084       .  S
C1449      C1450   1.407       .  A
C1450     Br1451   1.921       .  S
C1455      C1456   1.407       .  A
C1455      C1460   1.404       .  A
C1455      H1462   1.083       .  S
C1456      C1457   1.421       .  A
C1457      C1458   1.401       .  A
C1457     Br1464   1.923       .  S
C1458      C1459   1.400       .  A
C1458      H1463   1.084       .  S
C1459      C1460   1.415       .  A
C1460     Br1461   1.922       .  S
C1465      C1466   1.401       .  A
C1465      H1472   1.084       .  S
C1467      C1468   1.400       .  A
C1467     Br1474   1.921       .  S
C1468      C1469   1.405       .  A
C1468      H1473   1.083       .  S
C1469      C1470   1.419       .  A
C1470     Br1471   1.923   1_655  S
C1475      C1476   1.406       .  A
C1475      C1480   1.399       .  A
C1475      H1482   1.083       .  S
C1476      C1477   1.414       .  A
C1477      C1478   1.397       .  A
C1477     Br1484   1.922       .  S
C1478      C1479   1.400       .  A
C1478      H1483   1.084       .  S
C1479      C1480   1.411       .  A
C1480     Br1481   1.922       .  S
C1485      C1486   1.404       .  A
C1485      C1490   1.402       .  A
C1485      H1492   1.083       .  S
C1487      C1488   1.400       .  A
C1487     Br1494   1.923       .  S
C1488      C1489   1.402       .  A
C1488      H1493   1.083       .  S
C1490     Br1491   1.923       .  S
C1495      C1496   1.403       .  A
C1495      C1500   1.398       .  A
C1495      H1502   1.084       .  S
C1496      C1497   1.410       .  A
C1497      C1498   1.402       .  A
C1497     Br1504   1.919       .  S
C1498      C1499   1.405       .  A
C1498      H1503   1.084       .  S
C1499      C1500   1.408       .  A
C1500     Br1501   1.919       .  S
C1505      C1506   1.404       .  A
C1505      C1510   1.396       .  A
C1505      H1512   1.084       .  S
C1506      C1507   1.410       .  A
C1507      C1508   1.397       .  A
C1507     Br1514   1.922       .  S
C1508      C1509   1.408       .  A
C1508      H1513   1.083       .  S
C1509      C1510   1.414       .  A
C1510     Br1511   1.921       .  S
C1515      C1520   1.399       .  A
C1515      H1522   1.083       .  S
C1516      C1517   1.413       .  A
C1517      C1518   1.403       .  A
C1517     Br1524   1.920       .  S
C1518      H1523   1.084       .  S
C1519      C1520   1.409       .  A
C1520     Br1521   1.921       .  S
C1525      C1526   1.404       .  A
C1525      C1530   1.404       .  A
C1525      H1532   1.083       .  S
C1526      C1527   1.414       .  A
C1527      C1528   1.400       .  A
C1527     Br1534   1.922       .  S
C1528      C1529   1.402       .  A
C1528      H1533   1.083       .  S
C1529      C1530   1.414       .  A
C1530     Br1531   1.921       .  S
C1535      C1536   1.406       .  A
C1535      C1540   1.395       .  A
C1535      H1542   1.083       .  S
C1536      C1537   1.415       .  A
C1537      C1538   1.398       .  A
C1538      C1539   1.405       .  A
C1538      H1543   1.084       .  S
C1539      C1540   1.411       .  A
C1540     Br1541   1.922       .  S
C1545      C1546   1.404       .  A
C1545      C1550   1.402       .  A
C1545      H1552   1.083       .  S
C1546      C1547   1.418       .  A
C1547      C1548   1.400       .  A
C1547     Br1554   1.922       .  S
C1548      C1549   1.401       .  A
C1548      H1553   1.084       .  S
C1549      C1550   1.416       .  A
C1550     Br1551   1.922       .  S
C1555      C1560   1.402       .  A
C1556      C1557   1.411   1_554  A
C1557     Br1564   1.920       .  S
C1558      C1559   1.408       .  A
C1558      H1563   1.084       .  S
C1559      C1560   1.411   1_556  A
C1560     Br1561   1.920       .  S
C1565      C1566   1.402       .  A
C1565      C1570   1.397       .  A
C1565      H1572   1.084       .  S
C1566      C1567   1.410       .  A
C1567      C1568   1.401       .  A
C1567     Br1574   1.920       .  S
C1568      C1569   1.408       .  A
C1568      H1573   1.083       .  S
C1569      C1570   1.417       .  A
C1570     Br1571   1.923       .  S
C1575      C1576   1.403       .  A
C1575      C1580   1.396       .  A
C1575      H1582   1.084       .  S
C1576      C1577   1.415   1_554  A
C1577      C1578   1.399       .  A
C1577     Br1584   1.923       .  S
C1578      C1579   1.406       .  A
C1578      H1583   1.083       .  S
C1579      C1580   1.417   1_556  A
C1580     Br1581   1.923       .  S
