geometry optimzed in LAMMPS
_audit_creation_date              2020-12-01 
_audit_creation_method            'lammps2cif' 
_symmetry_space_group_name_H-M    'P1' 
_symmetry_Int_Tables_number       1 
_symmetry_cell_setting            triclinic 
loop_ 
_symmetry_equiv_pos_as_xyz 
  x,y,z 
_cell_length_a                    37.20563892 
_cell_length_b                    37.178880500882045 
_cell_length_c                    32.917028906194396 
_cell_angle_alpha                 89.9972358147512 
_cell_angle_beta                  89.99764140095041 
_cell_angle_gamma                 89.99731307373581 
loop_ 
_atom_site_label 
_atom_site_type_symbol 
_atom_site_fract_x 
_atom_site_fract_y 
_atom_site_fract_z 
_atom_site_charge 
C1          C  0.43858428  0.35811860  0.30372775     0.02800
C2          C  0.45908338  0.33806076  0.33163991    -0.13400
C3          C  0.44667530  0.30446820  0.34547122     0.00300
C4          C  0.41327586  0.29156642  0.33165470    -0.11900
C5          C  0.39303210  0.31176421  0.30359790     0.02800
C6          C  0.40625823  0.34438862  0.28939793    -0.11300
H7          H  0.48423375  0.34866481  0.34311902     0.08300
H8          H  0.40303147  0.26624737  0.34312128     0.05900
H9          H  0.39037139  0.36011456  0.26827710     0.05700
C10         C  0.34277803  0.36186055  0.09140151     0.02800
C11         C  0.37675263  0.37407417  0.10298037    -0.13400
C12         C  0.38908908  0.40802374  0.09132654     0.00300
C13         C  0.36695724  0.43027246  0.06729681    -0.11900
C14         C  0.33240399  0.41864267  0.05540939     0.02800
C15         C  0.32060721  0.38414847  0.06751673    -0.11300
H16         H  0.39246880  0.35829345  0.12429711     0.08300
H17         H  0.37607063  0.45693967  0.05891889     0.05900
H18         H  0.29390241  0.37513356  0.05921210     0.05700
C19         C  0.18393485  0.36218290  0.33461799     0.02800
C20         C  0.15020401  0.37458060  0.32211328    -0.13400
C21         C  0.13736378  0.40829660  0.33409022     0.00300
C22         C  0.15890291  0.43023872  0.35912426    -0.11900
C23         C  0.19322907  0.41855180  0.37192599     0.02800
C24         C  0.20540294  0.38418609  0.35975507    -0.11300
H25         H  0.13502934  0.35905862  0.30007646     0.08300
H26         H  0.14956972  0.45682642  0.36752850     0.05900
H27         H  0.23200668  0.37525501  0.36855477     0.05700
C28         C  0.43851011  0.11679905  0.12220231     0.02800
C29         C  0.40602632  0.13025329  0.13647348    -0.13400
C30         C  0.39307698  0.16323060  0.12299469     0.00300
C31         C  0.41373237  0.18400517  0.09600399    -0.11900
C32         C  0.44710099  0.17116878  0.08223903     0.02800
C33         C  0.45927590  0.13729625  0.09511079    -0.11300
H34         H  0.38982942  0.11408679  0.15685677     0.08300
H35         H  0.40364569  0.20952517  0.08491660     0.05900
H36         H  0.48440636  0.12680408  0.08342574     0.05700
N37         N  0.45023240  0.44335199  0.25857507    -0.06500
N38         N  0.43313656  0.41233451  0.25951780    -0.58600
N39         N  0.46544623  0.02422539  0.29291529    -0.06200
N40         N  0.44970989  0.03912272  0.32507019    -0.60700
N41         N  0.44351071  0.02529174  0.26170643    -0.05800
N42         N  0.41315797  0.04126803  0.27142651    -0.58600
N43         N  0.47504813  0.44393807  0.28720847    -0.05400
N44         N  0.47547609  0.41365756  0.30795307    -0.61100
C45         C  0.44915947  0.39424484  0.29043701     0.95700
C46         C  0.41722083  0.04993958  0.31073651     0.95500
N47         N  0.07598675  0.03208572  0.25799997    -0.06700
N48         N  0.09276031  0.06325637  0.25787749    -0.59200
N49         N  0.06027591  0.45149635  0.29313948    -0.04800
N50         N  0.07537928  0.43557557  0.32502162    -0.60400
N51         N  0.08223933  0.45017485  0.26197756    -0.06700
N52         N  0.11199006  0.43302242  0.27144226    -0.59500
N53         N  0.05107746  0.03204076  0.28658032    -0.04400
N54         N  0.05033205  0.06282257  0.30625796    -0.60500
Mn55       Mn  0.01295089  0.48797900  0.29154544     1.18400
C56         C  0.07646798  0.08195756  0.28808278     0.97800
C57         C  0.10744610  0.42374799  0.31050564     0.98400
N58         N  0.45085302  0.03148075  0.16632450    -0.06700
N59         N  0.43330086  0.06221238  0.16546527    -0.63000
N60         N  0.46615708  0.45085759  0.13225942    -0.05500
N61         N  0.45105041  0.43505338  0.10032977    -0.63700
N62         N  0.44416743  0.44951357  0.16339400    -0.06200
N63         N  0.41440796  0.43244987  0.15389780    -0.63300
N64         N  0.47584464  0.03135941  0.13782246    -0.05100
N65         N  0.47585448  0.06170057  0.11721257    -0.64000
Mn66       Mn  0.44620966  0.48748381  0.21260599     1.10700
C67         C  0.44916325  0.08060714  0.13474616     0.99000
C68         C  0.41898200  0.42329350  0.11483635     0.99100
N69         N  0.07569038  0.44337407  0.16684781    -0.06200
N70         N  0.09268609  0.41231465  0.16659341    -0.61600
N71         N  0.06112548  0.02418543  0.13199639    -0.05600
N72         N  0.07619918  0.03992678  0.09994867    -0.58300
N73         N  0.08337976  0.02511807  0.16289810    -0.06900
N74         N  0.11335372  0.04176229  0.15307911    -0.61200
N75         N  0.05082343  0.44353380  0.13826445    -0.05900
N76         N  0.05027328  0.41288244  0.11821501    -0.58400
Mn77       Mn  0.07973994  0.48786957  0.21228529     1.20200
Mn78       Mn  0.01328464  0.48768997  0.13367321     1.10100
Cl79       Cl  0.01307482  0.48786085  0.21262043    -0.86300
C80         C  0.07658320  0.39372851  0.13615808     0.96000
C81         C  0.10863408  0.05117710  0.11406474     0.95800
C82         C  0.13308159  0.31139805  0.12426456     0.02800
C83         C  0.11302103  0.29094470  0.09638071    -0.13400
C84         C  0.07962579  0.30357219  0.08244635     0.00300
C85         C  0.06689672  0.33709145  0.09594315    -0.11900
C86         C  0.08716564  0.35739613  0.12376963     0.02800
C87         C  0.11950155  0.34387708  0.13847000    -0.11300
H88         H  0.12355123  0.26576589  0.08483651     0.08300
H89         H  0.04182282  0.34754177  0.08406527     0.05900
H90         H  0.13527849  0.35978509  0.15951507     0.05700
C91         C  0.38720523  0.06551948  0.33417304     0.02800
C92         C  0.37532670  0.09959874  0.32235806    -0.13400
C93         C  0.34172216  0.11259806  0.33427591     0.00300
C94         C  0.31946438  0.09106743  0.35897999    -0.11900
C95         C  0.33067523  0.05643314  0.37138230     0.02800
C96         C  0.36484226  0.04390376  0.35884162    -0.11300
H97         H  0.39113732  0.11495267  0.30073454     0.08300
H98         H  0.29301827  0.10068788  0.36747601     0.05900
H99         H  0.37344516  0.01707474  0.36722437     0.05700
C100        C  0.07995323  0.17105361  0.34333245     0.02800
C101        C  0.06683039  0.13809216  0.32875886    -0.13400
C102        C  0.08704923  0.11810481  0.30066073     0.00300
C103        C  0.11954981  0.13146716  0.28647616    -0.11900
C104        C  0.13343153  0.16343640  0.30163302     0.02800
C105        C  0.11358167  0.18352866  0.33002968    -0.11300
H106        H  0.04156482  0.12770736  0.34019382     0.08300
H107        H  0.13521190  0.11575799  0.26512642     0.05900
H108        H  0.12437111  0.20831210  0.34232417     0.05700
C109        C  0.19506999  0.05629407  0.05335212     0.02800
C110        C  0.16079906  0.04436492  0.06622164    -0.13400
C111        C  0.13851625  0.06657944  0.09019732     0.00300
C112        C  0.15063693  0.10081214  0.10120377    -0.11900
C113        C  0.18446126  0.11332527  0.08914238     0.02800
C114        C  0.20652523  0.09115497  0.06475576    -0.11300
H115        H  0.15198937  0.01743682  0.05854096     0.08300
H116        H  0.13496097  0.11658081  0.12256575     0.05900
H117        H  0.23307255  0.10033873  0.05607547     0.05700
N118        N  0.30085550  0.16806240  0.26185471    -0.06500
N119        N  0.31765516  0.13814351  0.27146965    -0.58600
N120        N  0.21925423  0.19971176  0.28651255    -0.06200
N121        N  0.18885744  0.20007799  0.30694138    -0.60700
N122        N  0.21890682  0.17493353  0.25778053    -0.05800
N123        N  0.18792069  0.15786231  0.25829170    -0.58600
N124        N  0.29958917  0.19004882  0.29301038    -0.05400
N125        N  0.31513262  0.17481403  0.32503150    -0.61100
C126        C  0.32669999  0.14262856  0.31061165     0.95700
C127        C  0.16963778  0.17383478  0.28904895     0.95500
N128        N  0.22584542  0.30694757  0.26252236    -0.06700
N129        N  0.20915580  0.33692845  0.27215005    -0.59200
N130        N  0.30751795  0.27472939  0.28700908    -0.04800
N131        N  0.33787685  0.27425340  0.30757979    -0.60400
N132        N  0.30791793  0.29970425  0.25852235    -0.06700
N133        N  0.33887745  0.31685386  0.25938941    -0.59500
N134        N  0.22685864  0.28479832  0.29353234    -0.04400
N135        N  0.21113666  0.29999351  0.32551260    -0.60500
Mn136      Mn  0.26326128  0.23731541  0.29142916     1.18400
C137        C  0.19984671  0.33236295  0.31118827     0.97800
C138        C  0.35713058  0.30072500  0.29010809     0.98400
N139        N  0.22549298  0.16831411  0.16221236    -0.06700
N140        N  0.20886671  0.13840340  0.15214676    -0.63000
N141        N  0.30737287  0.20004314  0.13825541    -0.05500
N142        N  0.33793390  0.20054815  0.11809218    -0.63700
N143        N  0.30752973  0.17503140  0.16670976    -0.06200
N144        N  0.33848427  0.15788404  0.16623840    -0.63300
N145        N  0.22677661  0.19057853  0.13130663    -0.05100
N146        N  0.21135695  0.17556897  0.09903086    -0.64000
Mn147      Mn  0.26315739  0.17079917  0.21213980     1.10700
C148        C  0.19991669  0.14315290  0.11300126     0.99000
C149        C  0.35700300  0.17406087  0.13580870     0.99100
N150        N  0.30123729  0.30667332  0.16341208    -0.06200
N151        N  0.31824801  0.33648874  0.15394037    -0.61600
N152        N  0.21928952  0.27544599  0.13870536    -0.05600
N153        N  0.18863376  0.27481851  0.11875255    -0.58300
N154        N  0.21904178  0.30021144  0.16744855    -0.06900
N155        N  0.18786832  0.31701709  0.16739030    -0.61200
N156        N  0.29992507  0.28473574  0.13223659    -0.05900
N157        N  0.31571180  0.29987347  0.10031733    -0.58400
Mn158      Mn  0.26352322  0.30415047  0.21294398     1.20200
Mn159      Mn  0.26332272  0.23774098  0.13370182     1.10100
Cl160      Cl  0.26323704  0.23747969  0.21256191    -0.86300
C161        C  0.32741926  0.33195913  0.11486500     0.96000
C162        C  0.16935118  0.30091282  0.13688583     0.95800
N163        N  0.26401425  0.48596370  0.53856905    -0.37000
N164        N  0.22355735  0.44705105  0.47614733    -0.57500
N165        N  0.25968437  0.48913951  0.41199298    -0.37000
N166        N  0.30192530  0.02685271  0.47587015    -0.57500
C167        C  0.24641452  0.46221313  0.56258730     0.26600
C168        C  0.28728881  0.00384942  0.56231462     0.26600
C169        C  0.24216412  0.46431134  0.38890303     0.26600
C170        C  0.28419214  0.50646427  0.38825987     0.26600
C171        C  0.20703876  0.43369455  0.50959645     0.35200
C172        C  0.20515089  0.43454161  0.44362293     0.35200
C173        C  0.31534187  0.04345641  0.50919088     0.35200
C174        C  0.31470901  0.04492332  0.44323251     0.35200
C175        C  0.25945241  0.46501776  0.60194588    -0.22300
C176        C  0.28583767  0.49100931  0.60150017    -0.22300
C177        C  0.25527484  0.46646640  0.34950262    -0.22300
C178        C  0.28162781  0.49289701  0.34910185    -0.22300
C179        C  0.17829338  0.41226240  0.49816531    -0.23300
C180        C  0.17707333  0.41279799  0.45663473    -0.23300
C181        C  0.33703726  0.07198600  0.49762315    -0.23300
C182        C  0.33670435  0.07289136  0.45606749    -0.23300
C183        C  0.21807637  0.43899838  0.55042962    -0.18700
C184        C  0.31021557  0.03234242  0.54998815    -0.18700
C185        C  0.30876887  0.03565262  0.40189993    -0.18700
C186        C  0.21422081  0.44036776  0.40221094    -0.18700
H187        H  0.25069882  0.45011296  0.62839855     0.14200
H188        H  0.30187400  0.99796047  0.62732181     0.14200
H189        H  0.24684107  0.45054217  0.32368319     0.14200
H190        H  0.29692990  0.00372352  0.32336241     0.14200
H191        H  0.16021771  0.39733662  0.51763929     0.12500
H192        H  0.15785452  0.39827633  0.43820903     0.12500
H193        H  0.35211428  0.09000123  0.51703072     0.12500
H194        H  0.35152264  0.09180887  0.43752952     0.12500
H195        H  0.25879319  0.49092620  0.50835316     0.25800
H196        H  0.25425695  0.49487998  0.44211621     0.25800
N197        N  0.01212461  0.23791750  0.03905226    -0.37000
N198        N  0.47578451  0.19654960  0.97644361    -0.57500
N199        N  0.01593217  0.23404870  0.91247679    -0.37000
N200        N  0.05452147  0.27456553  0.97642468    -0.57500
C201        C  0.49476044  0.21525230  0.06339901     0.26600
C202        C  0.03478827  0.25667786  0.06325733     0.26600
C203        C  0.49743937  0.21129477  0.88941523     0.26600
C204        C  0.03849558  0.25379214  0.88878454     0.26600
C205        C  0.45833793  0.18391282  0.00959238     0.35200
C206        C  0.45919209  0.18218862  0.94364285     0.35200
C207        C  0.06753952  0.29183678  0.00953375     0.35200
C208        C  0.06926476  0.29063457  0.94353380     0.35200
C209        C  0.50624469  0.21911925  0.10326047    -0.22300
C210        C  0.02956472  0.24621212  0.10328133    -0.22300
C211        C  0.50999426  0.21441979  0.84987753    -0.22300
C212        C  0.03306768  0.24369152  0.84864575    -0.22300
C213        C  0.43084011  0.16104141  0.99777657    -0.23300
C214        C  0.43137328  0.15991858  0.95626987    -0.23300
C215        C  0.09094664  0.31882189  0.99761824    -0.23300
C216        C  0.09204600  0.31810286  0.95608292    -0.23300
C217        C  0.46733639  0.19123664  0.05062423    -0.18700
C218        C  0.05967314  0.28337018  0.05060225    -0.18700
C219        C  0.06327823  0.28107603  0.90220150    -0.18700
C220        C  0.46906248  0.18759684  0.90236229    -0.18700
H221        H  0.49664812  0.20471933  0.12969745     0.14200
H222        H  0.04323823  0.25629121  0.12997606     0.14200
H223        H  0.50079426  0.19951976  0.82361810     0.14200
H224        H  0.04659637  0.25437612  0.82215744     0.14200
H225        H  0.41239093  0.14633448  0.01702245     0.12500
H226        H  0.41335479  0.14410672  0.93764766     0.12500
H227        H  0.10585418  0.33715795  0.01680925     0.12500
H228        H  0.10800876  0.33591511  0.93736244     0.12500
H229        H  0.00905278  0.24106605  0.00813522     0.25800
H230        H  0.01366299  0.23629337  0.94353576     0.25800
N231        N  0.01179010  0.23541010  0.38693295    -0.37000
N232        N  0.47499641  0.27554686  0.45076870    -0.57500
N233        N  0.01254719  0.23363713  0.51373688    -0.37000
N234        N  0.05369541  0.19709460  0.44992654    -0.57500
C235        C  0.49098270  0.25647702  0.36381061     0.26600
C236        C  0.03621085  0.21854029  0.36319200     0.26600
C237        C  0.49262015  0.25429113  0.53779183     0.26600
C238        C  0.03620800  0.21498827  0.53737468     0.26600
C239        C  0.46175258  0.29344631  0.41812561     0.35200
C240        C  0.46219197  0.29250361  0.48413103     0.35200
C241        C  0.06641361  0.18031756  0.41634140     0.35200
C242        C  0.06712612  0.17915500  0.48239990     0.35200
C243        C  0.00727972  0.25780512  0.32413039    -0.22300
C244        C  0.03368200  0.23184739  0.32389904    -0.22300
C245        C  0.00492517  0.25218695  0.57745837    -0.22300
C246        C  0.03166559  0.22607638  0.57729826    -0.22300
C247        C  0.44007802  0.32153551  0.43081439    -0.23300
C248        C  0.44031240  0.32097339  0.47234267    -0.23300
C249        C  0.08840417  0.15191339  0.42758079    -0.23300
C250        C  0.08891788  0.15120459  0.46914223    -0.23300
C251        C  0.46741272  0.28417899  0.37684658    -0.18700
C252        C  0.05995980  0.19070852  0.37547854    -0.18700
C253        C  0.06110539  0.18776974  0.52397611    -0.18700
C254        C  0.46826487  0.28223686  0.52521542    -0.18700
H255        H  0.47759329  0.25255608  0.29830780     0.14200
H256        H  0.04921984  0.22370865  0.29766745     0.14200
H257        H  0.48060343  0.24959182  0.60344420     0.14200
H258        H  0.04606885  0.21633415  0.60366094     0.14200
H259        H  0.42529035  0.34038343  0.41214816     0.12500
H260        H  0.42560426  0.33944183  0.49154602     0.12500
H261        H  0.10285360  0.13360653  0.40791579     0.12500
H262        H  0.10382120  0.13214499  0.48740232     0.12500
H263        H  0.00654532  0.22952348  0.41697697     0.25800
H264        H  0.00880491  0.23023696  0.48298508     0.25800
N265        N  0.26300571  0.48238166  0.88667590    -0.37000
N266        N  0.30406428  0.44615382  0.95032930    -0.57500
N267        N  0.26342229  0.48586344  0.01323523    -0.37000
N268        N  0.22473058  0.02541967  0.94945226    -0.57500
C269        C  0.28789570  0.46538755  0.86358387     0.26600
C270        C  0.24594459  0.00736951  0.86310634     0.26600
C271        C  0.28686880  0.46748544  0.03727162     0.26600
C272        C  0.24411239  0.01002968  0.03678787     0.26600
C273        C  0.31737573  0.42843318  0.91768552     0.35200
C274        C  0.31762296  0.42964543  0.98356547     0.35200
C275        C  0.20767283  0.03773802  0.91590189     0.35200
C276        C  0.20719453  0.03946867  0.98183408     0.35200
C277        C  0.28665501  0.47888679  0.82434045    -0.22300
C278        C  0.26058488  0.50513646  0.82389050    -0.22300
C279        C  0.28273236  0.47961523  0.07686892    -0.22300
C280        C  0.25638853  0.00705971  0.07644139    -0.22300
C281        C  0.33989752  0.40092872  0.93019646    -0.23300
C282        C  0.34013228  0.40169854  0.97168655    -0.23300
C283        C  0.17952589  0.06010215  0.92705201    -0.23300
C284        C  0.17924281  0.06124287  0.96856099    -0.23300
C285        C  0.31118806  0.43752080  0.87654558    -0.18700
C286        C  0.21789307  0.03094397  0.87512803    -0.18700
C287        C  0.21641119  0.03428269  0.02331506    -0.18700
C288        C  0.31125380  0.43960079  0.02463209    -0.18700
H289        H  0.30295820  0.47082492  0.79867510     0.14200
H290        H  0.25234773  0.02135398  0.79800151     0.14200
H291        H  0.29719008  0.47034829  0.10340914     0.14200
H292        H  0.24737565  0.02243772  0.10243444     0.14200
H293        H  0.35499893  0.38240013  0.91143548     0.12500
H294        H  0.35549630  0.38369136  0.99080003     0.12500
H295        H  0.16123207  0.07454698  0.90737089     0.12500
H296        H  0.16058328  0.07668999  0.98676861     0.12500
H297        H  0.25653965  0.47655088  0.91648746     0.25800
H298        H  0.25972295  0.48152587  0.98262389     0.25800
C299        C  0.33986584  0.36335359  0.80433969     0.02800
C300        C  0.31909875  0.38376863  0.83154785    -0.13400
C301        C  0.33169985  0.41725614  0.84528860     0.00300
C302        C  0.36539392  0.42974207  0.83218792    -0.11900
C303        C  0.38581259  0.40917716  0.80479624     0.02800
C304        C  0.37258910  0.37657219  0.79066296    -0.11300
H305        H  0.29367289  0.37349262  0.84264324     0.08300
H306        H  0.37571649  0.45500571  0.84372724     0.05900
H307        H  0.38871444  0.36051831  0.77009131     0.05700
C308        C  0.39088466  0.15608325  0.83554553     0.02800
C309        C  0.40294575  0.12194422  0.82422526    -0.13400
C310        C  0.43682422  0.10940575  0.83590947     0.00300
C311        C  0.45915507  0.13149098  0.85999684    -0.11900
C312        C  0.44771898  0.16618876  0.87188297     0.02800
C313        C  0.41330051  0.17818791  0.85950708    -0.11300
H314        H  0.38708758  0.10621056  0.80300350     0.08300
H315        H  0.48576216  0.12224881  0.86836269     0.05900
H316        H  0.40446394  0.20501112  0.86761999     0.05700
C317        C  0.19816563  0.05092994  0.84307338     0.02800
C318        C  0.21051939  0.08467518  0.83005613    -0.13400
C319        C  0.18983197  0.10516905  0.80285847     0.00300
C320        C  0.15723554  0.09194707  0.78875206    -0.11900
C321        C  0.14430333  0.05900439  0.80216466     0.02800
C322        C  0.16482896  0.03820001  0.82921194    -0.11300
H323        H  0.23568586  0.09508306  0.84172843     0.08300
H324        H  0.14103562  0.10816338  0.76841414     0.05900
H325        H  0.15463468  0.01273234  0.84033269     0.05700
C326        C  0.09431830  0.35835554  0.83418295     0.02800
C327        C  0.12851103  0.34639306  0.82307516    -0.13400
C328        C  0.14137306  0.31287713  0.83569504     0.00300
C329        C  0.11956194  0.29087371  0.86042158    -0.11900
C330        C  0.08474042  0.30221875  0.87179156     0.02800
C331        C  0.07242506  0.33622114  0.85860370    -0.11300
H332        H  0.14403814  0.36196733  0.80139428     0.08300
H333        H  0.12899703  0.26448303  0.86945121     0.05900
H334        H  0.04551273  0.34493330  0.86643695     0.05700
C335        C  0.08285115  0.16624142  0.55421440     0.02800
C336        C  0.11737105  0.17801236  0.56650722    -0.13400
C337        C  0.13958514  0.15589087  0.59080668     0.00300
C338        C  0.12727659  0.12178979  0.60226579    -0.11900
C339        C  0.09334118  0.10932017  0.59050537     0.02800
C340        C  0.07119307  0.13161646  0.56638752    -0.11300
H341        H  0.12635464  0.20476792  0.55833606     0.08300
H342        H  0.14300878  0.10603036  0.62358008     0.05900
H343        H  0.04451150  0.12255002  0.55809225     0.05700
C344        C  0.33836343  0.10450145  0.62472687     0.02800
C345        C  0.31789448  0.08471286  0.59674236    -0.13400
C346        C  0.33077860  0.05178511  0.58187566     0.00300
C347        C  0.36450389  0.03910529  0.59482387    -0.11900
C348        C  0.38456420  0.05889480  0.62337461     0.02800
C349        C  0.37085862  0.09091078  0.63870721    -0.11300
H350        H  0.29256689  0.09522747  0.58562458     0.08300
H351        H  0.37510797  0.01432951  0.58231531     0.05900
H352        H  0.38660881  0.10644722  0.66012915     0.05700
N353        N  0.32790763  0.27845021  0.75918619    -0.06500
N354        N  0.34510463  0.30936539  0.76014803    -0.58600
N355        N  0.31285112  0.19732595  0.79381041    -0.06200
N356        N  0.32825668  0.18204714  0.82593982    -0.60700
N357        N  0.33508946  0.19662478  0.76287120    -0.05800
N358        N  0.36537420  0.18061146  0.77276553    -0.58600
N359        N  0.30312270  0.27787496  0.78784850    -0.05400
N360        N  0.30278797  0.30809545  0.80865832    -0.61100
C361        C  0.32914765  0.32740076  0.79110207     0.95700
C362        C  0.36089308  0.17140133  0.81185764     0.95500
N363        N  0.20255468  0.19024615  0.75855604    -0.06700
N364        N  0.18480728  0.15963856  0.75944318    -0.59200
N365        N  0.21849148  0.27044623  0.79408144    -0.04800
N366        N  0.20336814  0.28574222  0.82633178    -0.60400
N367        N  0.19647527  0.27209839  0.76298066    -0.06700
N368        N  0.16665143  0.28886607  0.77286799    -0.59500
N369        N  0.22762426  0.19015786  0.78694132    -0.04400
N370        N  0.22755685  0.15982364  0.80749394    -0.60500
Mn371      Mn  0.26551456  0.23385393  0.79201863     1.18400
C372        C  0.20070357  0.14114078  0.79007040     0.97800
C373        C  0.17120526  0.29749855  0.81209555     0.98400
N374        N  0.32753605  0.19033618  0.66780798    -0.06700
N375        N  0.34431614  0.15917620  0.66768189    -0.63000
N376        N  0.31221314  0.27101575  0.63265357    -0.05500
N377        N  0.32742788  0.28648601  0.60055388    -0.63700
N378        N  0.33424267  0.27233959  0.66376611    -0.06200
N379        N  0.36416408  0.28904114  0.65402557    -0.63300
N380        N  0.30253037  0.19054871  0.63934737    -0.05100
N381        N  0.30170904  0.15985762  0.61950420    -0.64000
Mn382      Mn  0.33192470  0.23448764  0.71332934     1.10700
C383        C  0.32791401  0.14063214  0.63745847     0.99000
C384        C  0.35967194  0.29796225  0.61486173     0.99100
N385        N  0.20271988  0.27908409  0.66765313    -0.06200
N386        N  0.18569148  0.31011964  0.66716417    -0.61600
N387        N  0.21741935  0.19805765  0.63223501    -0.05600
N388        N  0.20207923  0.18254570  0.60018714    -0.58300
N389        N  0.19535437  0.19695603  0.66331053    -0.06900
N390        N  0.16530071  0.18039080  0.65362054    -0.61200
N391        N  0.22752963  0.27877114  0.63900653    -0.05900
N392        N  0.22803228  0.30928424  0.61869884    -0.58400
Mn393      Mn  0.19855116  0.23462020  0.71312433     1.20200
Mn394      Mn  0.26494523  0.23455593  0.63436999     1.10100
Cl395      Cl  0.26523336  0.23433243  0.71320961    -0.86300
C396        C  0.20175150  0.32852100  0.63652994     0.96000
C397        C  0.16969929  0.17124819  0.61447438     0.95800
C398        C  0.43584638  0.35956562  0.59201956     0.02800
C399        C  0.40168681  0.34734934  0.60291995    -0.13400
C400        C  0.38958745  0.31329470  0.59127946     0.00300
C401        C  0.41204687  0.29111061  0.56746823    -0.11900
C402        C  0.44673037  0.30285402  0.55602211     0.02800
C403        C  0.45837598  0.33727143  0.56857452    -0.11300
H404        H  0.38565936  0.36316227  0.62390340     0.08300
H405        H  0.40309102  0.26442821  0.55894270     0.05900
H406        H  0.48519777  0.34630311  0.56078937     0.05700
C407        C  0.14474754  0.41020450  0.62378553     0.02800
C408        C  0.15846113  0.37786049  0.63804246    -0.13400
C409        C  0.19101211  0.36466962  0.62370733     0.00300
C410        C  0.21126439  0.38508445  0.59589858    -0.11900
C411        C  0.19841393  0.41860502  0.58242777     0.02800
C412        C  0.16488526  0.43097383  0.59628877    -0.11300
H413        H  0.14264276  0.36179665  0.65890277     0.08300
H414        H  0.23643767  0.37477448  0.58414115     0.05900
H415        H  0.15421429  0.45610453  0.58477071     0.05700
N416        N  0.47689965  0.05346303  0.76329360    -0.06500
N417        N  0.46027169  0.08344973  0.77300873    -0.58600
N418        N  0.05917208  0.02161322  0.78659768    -0.06200
N419        N  0.08957705  0.02150117  0.80695744    -0.60700
N420        N  0.05916310  0.04648749  0.75799052    -0.05800
N421        N  0.08994485  0.06393614  0.75852947    -0.58600
N422        N  0.47858551  0.03162345  0.79458077    -0.05400
N423        N  0.46352552  0.04709544  0.82678099    -0.61100
C424        C  0.45182602  0.07924889  0.81234898     0.95700
C425        C  0.10842763  0.04804999  0.78918821     0.95500
N426        N  0.05235807  0.41345106  0.76197949    -0.06700
N427        N  0.06891868  0.38336591  0.77159024    -0.59200
N428        N  0.47120204  0.44614137  0.78859157    -0.04800
N429        N  0.44095250  0.44641730  0.80932689    -0.60400
N430        N  0.47069639  0.42133685  0.75990730    -0.06700
N431        N  0.43982192  0.40410730  0.76077921    -0.59500
N432        N  0.05185519  0.43575616  0.79289025    -0.04400
N433        N  0.06784957  0.42061872  0.82470357    -0.60500
Mn434      Mn  0.01564340  0.98379955  0.79192937     1.18400
C435        C  0.07873224  0.38811418  0.81046031     0.97800
C436        C  0.42173479  0.42001070  0.79170646     0.98400
N437        N  0.05241375  0.05333800  0.66283000    -0.06700
N438        N  0.06888841  0.08343933  0.65314530    -0.63000
N439        N  0.47020675  0.02192841  0.63924865    -0.05500
N440        N  0.43987173  0.02166390  0.61861983    -0.63700
N441        N  0.46986790  0.04676891  0.66787686    -0.06200
N442        N  0.43896694  0.06401625  0.66709251    -0.63300
N443        N  0.05134926  0.03125223  0.63175380    -0.05100
N444        N  0.06678436  0.04666382  0.59968578    -0.64000
Mn445      Mn  0.01472761  0.05036833  0.71258165     1.10700
C446        C  0.07801152  0.07908982  0.61401106     0.99000
C447        C  0.42068919  0.04810131  0.63626482     0.99100
N448        N  0.47673910  0.41479001  0.66457215    -0.05800
N449        N  0.45981026  0.38496567  0.65488593    -0.61600
N450        N  0.05847355  0.44572401  0.63822036    -0.05600
N451        N  0.08910767  0.44650328  0.61826399    -0.58300
N452        N  0.05866753  0.42071747  0.66670557    -0.06900
N453        N  0.08981740  0.40389784  0.66645618    -0.61200
N454        N  0.47823712  0.43678630  0.63344188    -0.05900
N455        N  0.46268938  0.42165093  0.60135792    -0.58400
Mn456      Mn  0.01442378  0.41665772  0.71250304     1.20200
Mn457      Mn  0.01493954  0.98364114  0.63414559     1.10100
Cl458      Cl  0.01512464  0.98368784  0.71303890    -0.86300
C459        C  0.45088354  0.38952774  0.61573522     0.96000
C460        C  0.10833917  0.42026481  0.63613038     0.95800
C461        C  0.43907289  0.85830323  0.30375838     0.02800
C462        C  0.45980685  0.83816841  0.33133495    -0.13400
C463        C  0.44725454  0.80480802  0.34560671     0.00300
C464        C  0.41350433  0.79219208  0.33251971    -0.11900
C465        C  0.39304526  0.81249142  0.30473771     0.02800
C466        C  0.40638235  0.84491797  0.29015866    -0.11300
H467        H  0.48521869  0.84858129  0.34229976     0.08300
H468        H  0.40316243  0.76704421  0.34434395     0.05900
H469        H  0.39034084  0.86076240  0.26929972     0.05700
C470        C  0.34232310  0.86267722  0.09238687     0.02800
C471        C  0.37655049  0.87473409  0.10317077    -0.13400
C472        C  0.38900913  0.90847240  0.09084960     0.00300
C473        C  0.36673963  0.93057238  0.06672182    -0.11900
C474        C  0.33189355  0.91905660  0.05562115     0.02800
C475        C  0.31998058  0.88487553  0.06862310    -0.11300
H476        H  0.39241770  0.85904069  0.12442584     0.08300
H477        H  0.37593773  0.95706039  0.05776113     0.05900
H478        H  0.29309160  0.87596870  0.06095600     0.05700
C479        C  0.18411017  0.86230921  0.33579269     0.02800
C480        C  0.15008777  0.87434441  0.32387418    -0.13400
C481        C  0.13749231  0.90834600  0.33511931     0.00300
C482        C  0.15943516  0.93079163  0.35912271    -0.11900
C483        C  0.19396738  0.91937291  0.37150810     0.02800
C484        C  0.20601208  0.88485217  0.35979669    -0.11300
H485        H  0.13456088  0.85837476  0.30257192     0.08300
H486        H  0.15016549  0.95748516  0.36718011     0.05900
H487        H  0.23276388  0.87610392  0.36825766     0.05700
C488        C  0.43855091  0.61687307  0.12221351     0.02800
C489        C  0.40631189  0.63050399  0.13686487    -0.13400
C490        C  0.39316633  0.66325840  0.12307165     0.00300
C491        C  0.41337328  0.68370827  0.09538654    -0.11900
C492        C  0.44648812  0.67070947  0.08114351     0.02800
C493        C  0.45890666  0.63700274  0.09433780    -0.11300
H494        H  0.39042490  0.61463191  0.15784420     0.08300
H495        H  0.40317139  0.70915697  0.08422584     0.05900
H496        H  0.48391358  0.62641097  0.08243120     0.05700
N497        N  0.45086359  0.94324042  0.25820441    -0.06500
N498        N  0.43374956  0.91224825  0.25922454    -0.58600
N499        N  0.46500326  0.52447058  0.29311754    -0.06200
N500        N  0.44939488  0.53946346  0.32526453    -0.60700
N501        N  0.44294510  0.52536400  0.26201246    -0.05800
N502        N  0.41258504  0.54126060  0.27181132    -0.58600
N503        N  0.47564159  0.94385108  0.28687172    -0.05400
N504        N  0.47604567  0.91365682  0.30772866    -0.61100
C505        C  0.44975547  0.89424685  0.29021701     0.95700
C506        C  0.41684872  0.55012764  0.31102558     0.95500
N507        N  0.07542665  0.53230854  0.25768447    -0.06700
N508        N  0.09251830  0.56330974  0.25795013    -0.59200
N509        N  0.06054884  0.95144016  0.29378699    -0.04800
N510        N  0.07552189  0.93554779  0.32576866    -0.60400
N511        N  0.08255306  0.94991180  0.26267250    -0.06700
N512        N  0.11220004  0.93264108  0.27227639    -0.59500
N513        N  0.05052947  0.53219600  0.28628326    -0.04400
N514        N  0.05011399  0.56282687  0.30634739    -0.60500
Mn515      Mn  0.01340635  0.98816891  0.29196106     1.18400
C516        C  0.07646497  0.58190094  0.28839771     0.97800
C517        C  0.10754222  0.92349521  0.31136154     0.98400
N518        N  0.45039378  0.53160807  0.16664315    -0.06700
N519        N  0.43313229  0.56250137  0.16581696    -0.63000
N520        N  0.46651555  0.95088186  0.13165433    -0.05500
N521        N  0.45120431  0.93535020  0.09965291    -0.63700
N522        N  0.44459766  0.94952512  0.16286418    -0.06200
N523        N  0.41468530  0.93276019  0.15331922    -0.63300
N524        N  0.47535608  0.53134006  0.13812693    -0.05100
N525        N  0.47566486  0.56168343  0.11755077    -0.64000
Mn526      Mn  0.44678230  0.98738258  0.21223348     1.10700
C527        C  0.44916105  0.58078479  0.13509275     0.99000
C528        C  0.41904599  0.92380984  0.11416753     0.99100
N529        N  0.07598163  0.94296892  0.16751727    -0.06200
N530        N  0.09274155  0.91178243  0.16728179    -0.61600
N531        N  0.06084986  0.52427497  0.13129046    -0.05600
N532        N  0.07639655  0.53955862  0.09919574    -0.58300
N533        N  0.08276313  0.52558466  0.16249261    -0.06900
N534        N  0.11285667  0.54210118  0.15286372    -0.61200
N535        N  0.05117747  0.94333029  0.13887509    -0.05900
N536        N  0.05043812  0.91268861  0.11880136    -0.58400
Mn537      Mn  0.08028050  0.98750556  0.21281319     1.20200
Mn538      Mn  0.01377802  0.98763784  0.13424513     1.10100
Cl539      Cl  0.01360110  0.98790546  0.21308741    -0.86300
C540        C  0.07656357  0.89332302  0.13678330     0.96000
C541        C  0.10870989  0.55098090  0.11361864     0.95800
C542        C  0.13353902  0.81147256  0.12427634     0.02800
C543        C  0.11393540  0.79127721  0.09575416    -0.13400
C544        C  0.08055942  0.80378919  0.08161684     0.00300
C545        C  0.06748083  0.83710553  0.09542894    -0.11900
C546        C  0.08729182  0.85712774  0.12398497     0.02800
C547        C  0.11951153  0.84356973  0.13895855    -0.11300
H548        H  0.12476756  0.76631931  0.08395846     0.08300
H549        H  0.04244804  0.84753347  0.08341965     0.05900
H550        H  0.13489573  0.85920264  0.16062547     0.05700
C551        C  0.38687998  0.56539375  0.33460055     0.02800
C552        C  0.37536315  0.59980966  0.32371068    -0.13400
C553        C  0.34151816  0.61250643  0.33510922     0.00300
C554        C  0.31872504  0.59033295  0.35843644    -0.11900
C555        C  0.32980611  0.55549137  0.37025617     0.02800
C556        C  0.36412694  0.54323599  0.35809297    -0.11300
H557        H  0.39159401  0.61563752  0.30293669     0.08300
H558        H  0.29213309  0.59976501  0.36661474     0.05900
H559        H  0.37264279  0.51626153  0.36599568     0.05700
C560        C  0.08010330  0.67159132  0.34279293     0.02800
C561        C  0.06713415  0.63828394  0.32899340    -0.13400
C562        C  0.08734221  0.61800381  0.30110240     0.00300
C563        C  0.11997841  0.63119159  0.28691704    -0.11900
C564        C  0.13372269  0.66344725  0.30150983     0.02800
C565        C  0.11359220  0.68404537  0.32910639    -0.11300
H566        H  0.04192768  0.62798106  0.34067402     0.08300
H567        H  0.13580963  0.61520470  0.26599378     0.05900
H568        H  0.12426524  0.70907478  0.34090038     0.05700
C569        C  0.19562797  0.55586114  0.05327812     0.02800
C570        C  0.16105133  0.54422910  0.06562168    -0.13400
C571        C  0.13902343  0.56628287  0.09014842     0.00300
C572        C  0.15174480  0.60009089  0.10211301    -0.11900
C573        C  0.18575818  0.61240957  0.09038747     0.02800
C574        C  0.20760044  0.59030207  0.06565897    -0.11300
H575        H  0.15185702  0.51760517  0.05720072     0.08300
H576        H  0.13621734  0.61574579  0.12371096     0.05900
H577        H  0.23431327  0.59924245  0.05731102     0.05700
N578        N  0.30167467  0.66871076  0.26287990    -0.06500
N579        N  0.31836824  0.63873178  0.27239780    -0.58600
N580        N  0.21974038  0.69965770  0.28753341    -0.06200
N581        N  0.18913593  0.70000687  0.30755264    -0.60700
N582        N  0.21967734  0.67484143  0.25883834    -0.05800
N583        N  0.18870854  0.65771765  0.25898279    -0.58600
N584        N  0.30009144  0.69047211  0.29422835    -0.05400
N585        N  0.31525310  0.67493637  0.32631017    -0.61100
C586        C  0.32695194  0.64286331  0.31168603     0.95700
C587        C  0.17011106  0.67371322  0.28945590     0.95500
N588        N  0.22571342  0.80698317  0.26370185    -0.06700
N589        N  0.20901371  0.83694338  0.27333936    -0.59200
N590        N  0.30748141  0.77540982  0.28848987    -0.04800
N591        N  0.33781295  0.77511176  0.30912287    -0.60400
N592        N  0.30778400  0.80038278  0.25998544    -0.06700
N593        N  0.33866249  0.81768185  0.26089340    -0.59500
N594        N  0.22683758  0.78486205  0.29473733    -0.04400
N595        N  0.21117952  0.80007516  0.32674663    -0.60500
Mn596      Mn  0.26350107  0.73758867  0.29268475     1.18400
C597        C  0.19979864  0.83240002  0.31239040     0.97800
C598        C  0.35695650  0.80166429  0.29166285     0.98400
N599        N  0.22630546  0.66809029  0.16343853    -0.06700
N600        N  0.21001832  0.63794969  0.15343969    -0.63000
N601        N  0.30797283  0.70053772  0.13951658    -0.05500
N602        N  0.33833034  0.70092410  0.11900378    -0.63700
N603        N  0.30819597  0.67541494  0.16782455    -0.06200
N604        N  0.33899353  0.65802531  0.16690659    -0.63300
N605        N  0.22756873  0.69024926  0.13243214    -0.05100
N606        N  0.21249612  0.67488113  0.10013421    -0.64000
Mn607      Mn  0.26395290  0.67106048  0.21328607     1.10700
C608        C  0.20127968  0.64237779  0.11417976     0.99000
C609        C  0.35734271  0.67423621  0.13637121     0.99100
N610        N  0.30112331  0.80741510  0.16470085    -0.06200
N611        N  0.31777907  0.83742168  0.15510080    -0.61600
N612        N  0.21953826  0.77539688  0.13989106    -0.05600
N613        N  0.18909641  0.77482365  0.11953193    -0.58300
N614        N  0.21909244  0.80025051  0.16854018    -0.06900
N615        N  0.18797913  0.81716639  0.16800409    -0.61200
N616        N  0.30011672  0.78531799  0.13363767    -0.05900
N617        N  0.31585627  0.80050332  0.10171779    -0.58400
Mn618      Mn  0.26344163  0.80450421  0.21421826     1.20200
Mn619      Mn  0.26378363  0.73793235  0.13499250     1.10100
Cl620      Cl  0.26363253  0.73777391  0.21381167    -0.86300
C621        C  0.32713749  0.83280553  0.11608782     0.96000
C622        C  0.16971341  0.80102466  0.13731753     0.95800
N623        N  0.26270311  0.98680067  0.53891464    -0.37000
N624        N  0.22394302  0.94698772  0.47598111    -0.57500
N625        N  0.26022373  0.98991285  0.41249921    -0.37000
N626        N  0.30263591  0.52554172  0.47488696    -0.57500
C627        C  0.24617824  0.96181199  0.56232966     0.26600
C628        C  0.28831201  0.50351049  0.56188011     0.26600
C629        C  0.24250624  0.96553664  0.38896721     0.26600
C630        C  0.28450799  0.00779277  0.38895280     0.26600
C631        C  0.20747093  0.93303668  0.50913227     0.35200
C632        C  0.20591158  0.93444922  0.44323639     0.35200
C633        C  0.31618157  0.54243641  0.50797644     0.35200
C634        C  0.31434680  0.54406010  0.44206737     0.35200
C635        C  0.26006100  0.96343496  0.60137960    -0.22300
C636        C  0.28592666  0.98990272  0.60137983    -0.22300
C637        C  0.25524800  0.96855614  0.34949908    -0.22300
C638        C  0.28157233  0.99501502  0.34949470    -0.22300
C639        C  0.17922840  0.91111464  0.49734926    -0.23300
C640        C  0.17820159  0.91200185  0.45584007    -0.23300
C641        C  0.33692449  0.57153288  0.49603467    -0.23300
C642        C  0.33577895  0.57258575  0.45454154    -0.23300
C643        C  0.21814855  0.93834458  0.55000802    -0.18700
C644        C  0.31160934  0.53149227  0.54892827    -0.18700
C645        C  0.30815875  0.53464674  0.40084394    -0.18700
C646        C  0.21484163  0.94108557  0.40195259    -0.18700
H647        H  0.25235363  0.94726897  0.62729434     0.14200
H648        H  0.30118712  0.49990124  0.62756125     0.14200
H649        H  0.24663311  0.95313133  0.32337523     0.14200
H650        H  0.29722230  0.50107981  0.32293020     0.14200
H651        H  0.16134632  0.89571157  0.51658355     0.12500
H652        H  0.15929805  0.89730956  0.43716723     0.12500
H653        H  0.35175424  0.58999005  0.51514203     0.12500
H654        H  0.34971517  0.59201388  0.43581557     0.12500
H655        H  0.25656063  0.99292809  0.50908547     0.25800
H656        H  0.25515233  0.99482574  0.44286863     0.25800
N657        N  0.01563427  0.73539323  0.03844888    -0.37000
N658        N  0.47469911  0.69694852  0.97544934    -0.57500
N659        N  0.01604646  0.73447630  0.91188026    -0.37000
N660        N  0.05458293  0.77535690  0.97558740    -0.57500
C661        C  0.49426248  0.71461405  0.06247851     0.26600
C662        C  0.03354135  0.75906514  0.06229017     0.26600
C663        C  0.49626813  0.71222114  0.88861840     0.26600
C664        C  0.03681416  0.75593557  0.88798102     0.26600
C665        C  0.45689652  0.68466592  0.00853170     0.35200
C666        C  0.45731646  0.68376253  0.94256662     0.35200
C667        C  0.07055095  0.78986940  0.00872678     0.35200
C668        C  0.07137750  0.78927841  0.94272573     0.35200
C669        C  0.50541077  0.71860551  0.10245072    -0.22300
C670        C  0.02146243  0.75564159  0.10196532    -0.22300
C671        C  0.50966399  0.71464145  0.84936979    -0.22300
C672        C  0.02845426  0.74859985  0.84771964    -0.22300
C673        C  0.42828097  0.66327569  0.99658696    -0.23300
C674        C  0.42851744  0.66268929  0.95504795    -0.23300
C675        C  0.09744970  0.81338297  0.99685215    -0.23300
C676        C  0.09798729  0.81305584  0.95530808    -0.23300
C677        C  0.46660696  0.69093201  0.04957423    -0.18700
C678        C  0.06086662  0.78331786  0.04972545    -0.18700
C679        C  0.06327686  0.78162727  0.90136466    -0.18700
C680        C  0.46774771  0.68864793  0.90140016    -0.18700
H681        H  0.49538932  0.70450599  0.12889267     0.14200
H682        H  0.03049445  0.77048419  0.12833891     0.14200
H683        H  0.50110402  0.69918506  0.82324221     0.14200
H684        H  0.04022629  0.76093133  0.82107410     0.14200
H685        H  0.40929112  0.64919600  0.01575851     0.12500
H686        H  0.40970615  0.64793538  0.93632377     0.12500
H687        H  0.11483299  0.82936790  0.01606339     0.12500
H688        H  0.11605453  0.82875069  0.93661050     0.12500
H689        H  0.02007700  0.73086580  0.00793075     0.25800
H690        H  0.01671127  0.73388673  0.94316637     0.25800
N691        N  0.01580163  0.73956406  0.38707877    -0.37000
N692        N  0.47563008  0.77656184  0.45094498    -0.57500
N693        N  0.01638908  0.73660990  0.51372144    -0.37000
N694        N  0.05383196  0.69695866  0.44946209    -0.57500
C695        C  0.49178924  0.75703179  0.36403354     0.26600
C696        C  0.03270883  0.71537153  0.36304492     0.26600
C697        C  0.49217988  0.75477461  0.53784576     0.26600
C698        C  0.03395177  0.71164180  0.53669865     0.26600
C699        C  0.46256614  0.79436422  0.41818351     0.35200
C700        C  0.46290579  0.79375466  0.48417200     0.35200
C701        C  0.07092237  0.68481112  0.41582598     0.35200
C702        C  0.07152602  0.68303492  0.48182150     0.35200
C703        C  0.99329218  0.74443005  0.32435841    -0.22300
C704        C  0.01933355  0.71813092  0.32381317    -0.22300
C705        C  0.99430240  0.73994710  0.57651310    -0.22300
C706        C  0.02069976  0.71353308  0.57603253    -0.22300
C707        C  0.44114747  0.82274833  0.43067091    -0.23300
C708        C  0.44135799  0.82241830  0.47221381    -0.23300
C709        C  0.09927405  0.66268716  0.42691660    -0.23300
C710        C  0.09966056  0.66154935  0.46846340    -0.23300
C711        C  0.46809740  0.78470205  0.37700005    -0.18700
C712        C  0.06058948  0.69158828  0.37503873    -0.18700
C713        C  0.06202750  0.68780428  0.52331028    -0.18700
C714        C  0.46843994  0.78322206  0.52523260    -0.18700
H715        H  0.47949308  0.75402346  0.29820808     0.14200
H716        H  0.02745925  0.70279349  0.29742356     0.14200
H717        H  0.47947147  0.74993337  0.60331124     0.14200
H718        H  0.02907817  0.69746120  0.60175919     0.14200
H719        H  0.42649758  0.84160111  0.41186909     0.12500
H720        H  0.42673459  0.84104742  0.49130653     0.12500
H721        H  0.11763907  0.64840579  0.40716952     0.12500
H722        H  0.11843150  0.64621029  0.48663883     0.12500
H723        H  0.02167232  0.74463729  0.41719541     0.25800
H724        H  0.02165811  0.74255263  0.48367689     0.25800
N725        N  0.26239618  0.98263434  0.88686237    -0.37000
N726        N  0.30275171  0.94574521  0.95046700    -0.57500
N727        N  0.26224251  0.98567595  0.01354472    -0.37000
N728        N  0.22537470  0.52512314  0.94921302    -0.57500
C729        C  0.28714949  0.96540455  0.86372362     0.26600
C730        C  0.24652105  0.50702996  0.86287961     0.26600
C731        C  0.28613250  0.96772560  0.03743601     0.26600
C732        C  0.24474882  0.50969881  0.03661286     0.26600
C733        C  0.31594210  0.92786588  0.91782256     0.35200
C734        C  0.31614795  0.92919463  0.98378413     0.35200
C735        C  0.20830243  0.53740046  0.91565502     0.35200
C736        C  0.20789275  0.53922585  0.98160979     0.35200
C737        C  0.28590621  0.97895550  0.82450374    -0.22300
C738        C  0.25995969  0.00538233  0.82410833    -0.22300
C739        C  0.28272055  0.98056489  0.07685013    -0.22300
C740        C  0.25635648  0.50606119  0.07645116    -0.22300
C741        C  0.33810234  0.90011456  0.93044720    -0.23300
C742        C  0.33831308  0.90095701  0.97196402    -0.23300
C743        C  0.18019702  0.55980255  0.92679454    -0.23300
C744        C  0.17995462  0.56099879  0.96831420    -0.23300
C745        C  0.31024980  0.93723692  0.87660786    -0.18700
C746        C  0.21846715  0.53051776  0.87489079    -0.18700
C747        C  0.21704437  0.53396578  0.02312591    -0.18700
C748        C  0.31034082  0.93965938  0.02483446    -0.18700
H749        H  0.30206437  0.97074074  0.79878612     0.14200
H750        H  0.25298515  0.52110019  0.79777387     0.14200
H751        H  0.29768698  0.97179141  0.10324415     0.14200
H752        H  0.24677864  0.52087426  0.10260059     0.14200
H753        H  0.35311880  0.88147639  0.91174097     0.12500
H754        H  0.35357802  0.88291285  0.99113447     0.12500
H755        H  0.16190024  0.57422733  0.90709960     0.12500
H756        H  0.16131051  0.57646313  0.98651540     0.12500
H757        H  0.25592860  0.97689778  0.91671041     0.25800
H758        H  0.25788647  0.98071944  0.98311188     0.25800
C759        C  0.33942962  0.86336948  0.80367502     0.02800
C760        C  0.31853473  0.88366452  0.83098116    -0.13400
C761        C  0.33111204  0.91702729  0.84531593     0.00300
C762        C  0.36511285  0.92937131  0.83278278    -0.11900
C763        C  0.38574514  0.90895912  0.80531547     0.02800
C764        C  0.37231904  0.87663259  0.79045901    -0.11300
H765        H  0.29299619  0.87336127  0.84170285     0.08300
H766        H  0.37549766  0.95443419  0.84478486     0.05900
H767        H  0.38846079  0.86073242  0.76975474     0.05700
C768        C  0.39065855  0.65531834  0.83445282     0.02800
C769        C  0.40293307  0.62098791  0.82425371    -0.13400
C770        C  0.43688224  0.60896815  0.83643200     0.00300
C771        C  0.45889559  0.63174338  0.86010091    -0.11900
C772        C  0.44707794  0.66658176  0.87099709     0.02800
C773        C  0.41275405  0.67809090  0.85790435    -0.11300
H774        H  0.38727007  0.60470892  0.80337749     0.08300
H775        H  0.48554262  0.62292512  0.86887833     0.05900
H776        H  0.40365696  0.70500580  0.86523558     0.05700
C777        C  0.19875738  0.55032580  0.84276585     0.02800
C778        C  0.21150982  0.58366441  0.82896477    -0.13400
C779        C  0.19096708  0.60395493  0.80146955     0.00300
C780        C  0.15824258  0.59077714  0.78762970    -0.11900
C781        C  0.14485508  0.55829867  0.80199725     0.02800
C782        C  0.16521850  0.53775635  0.82940121    -0.11300
H783        H  0.23680668  0.59398760  0.84037872     0.08300
H784        H  0.14220541  0.60680518  0.76694616     0.05900
H785        H  0.15476693  0.51262081  0.84116036     0.05700
C786        C  0.09557322  0.85952014  0.83499941     0.02800
C787        C  0.12961670  0.84708988  0.82370824    -0.13400
C788        C  0.14178613  0.81304651  0.83549569     0.00300
C789        C  0.11935750  0.79095726  0.85935712    -0.11900
C790        C  0.08477861  0.80277845  0.87101950     0.02800
C791        C  0.07323761  0.83735222  0.85889741    -0.11300
H792        H  0.14548548  0.86272878  0.80241404     0.08300
H793        H  0.12824034  0.76421232  0.86775330     0.05900
H794        H  0.04650513  0.84644390  0.86696859     0.05700
C795        C  0.08323000  0.66572177  0.55346854     0.02800
C796        C  0.11757741  0.67751083  0.56628370    -0.13400
C797        C  0.13950966  0.65546462  0.59085336     0.00300
C798        C  0.12700336  0.62155211  0.60250447    -0.11900
C799        C  0.09322692  0.60904565  0.59031811     0.02800
C800        C  0.07137527  0.63113097  0.56553175    -0.11300
H801        H  0.12669219  0.70423196  0.55813748     0.08300
H802        H  0.14251713  0.60590491  0.62413300     0.05900
H803        H  0.04478552  0.62205472  0.55689159     0.05700
C804        C  0.33996650  0.60487533  0.62211973     0.02800
C805        C  0.31961593  0.58483445  0.59424562    -0.13400
C806        C  0.33221783  0.55142702  0.58041510     0.00300
C807        C  0.36559095  0.53855896  0.59423393    -0.11900
C808        C  0.38560561  0.55872717  0.62249510     0.02800
C809        C  0.37221645  0.59124155  0.63673028    -0.11300
H810        H  0.29447825  0.59537529  0.58263138     0.08300
H811        H  0.37595843  0.51333049  0.58265082     0.05900
H812        H  0.38792741  0.60696424  0.65801684     0.05700
N813        N  0.32787678  0.77821229  0.75834267    -0.06500
N814        N  0.34477036  0.80934644  0.75915163    -0.58600
N815        N  0.31292714  0.69672325  0.79274020    -0.06200
N816        N  0.32815743  0.68105129  0.82469776    -0.60700
N817        N  0.33512332  0.69600666  0.76176462    -0.05800
N818        N  0.36523272  0.67956134  0.77148488    -0.58600
N819        N  0.30322554  0.77747549  0.78715995    -0.05400
N820        N  0.30272356  0.80774650  0.80790639    -0.61100
C821        C  0.32879660  0.82733136  0.79018123     0.95700
C822        C  0.36060782  0.67005688  0.81048571     0.95500
N823        N  0.20290009  0.68949171  0.75801694    -0.06700
N824        N  0.18559686  0.65862273  0.75842897    -0.59200
N825        N  0.21859514  0.76988498  0.79387191    -0.04800
N826        N  0.20367585  0.78553003  0.82605003    -0.60400
N827        N  0.19646698  0.77142027  0.76287946    -0.06700
N828        N  0.16674580  0.78839867  0.77275614    -0.59500
N829        N  0.22799386  0.68942465  0.78636042    -0.04400
N830        N  0.22838563  0.65882817  0.80642321    -0.60500
Mn831      Mn  0.26569923  0.73330478  0.79141381     1.18400
C832        C  0.20178209  0.63996809  0.78872786     0.97800
C833        C  0.17150539  0.79738505  0.81185370     0.98400
N834        N  0.32777938  0.69004734  0.66647105    -0.06700
N835        N  0.34525892  0.65928755  0.66558220    -0.63000
N836        N  0.31204490  0.77057367  0.63174517    -0.05500
N837        N  0.32726477  0.78614687  0.59970014    -0.63700
N838        N  0.33398449  0.77200965  0.66292885    -0.06200
N839        N  0.36381022  0.78890443  0.65333977    -0.63300
N840        N  0.30271204  0.69018197  0.63807974    -0.05100
N841        N  0.30254912  0.65984321  0.61750433    -0.64000
Mn842      Mn  0.33193149  0.73409329  0.71234799     1.10700
C843        C  0.32923359  0.64090829  0.63496409     0.99000
C844        C  0.35939046  0.79782252  0.61418640     0.99100
N845        N  0.20273868  0.77853620  0.66748885    -0.06200
N846        N  0.18583571  0.80964880  0.66715766    -0.61600
N847        N  0.21742384  0.69748303  0.63189947    -0.05600
N848        N  0.20197499  0.68197627  0.59993659    -0.58300
N849        N  0.19543258  0.69646087  0.66305247    -0.06900
N850        N  0.16533348  0.67994122  0.65350740    -0.61200
N851        N  0.22733603  0.77811787  0.63859973    -0.05900
N852        N  0.22776963  0.80859948  0.61825228    -0.58400
Mn853      Mn  0.19864209  0.73401754  0.71288231     1.20200
Mn854      Mn  0.26485409  0.73401598  0.63364741     1.10100
Cl855      Cl  0.26528840  0.73380149  0.71256089    -0.86300
C856        C  0.20171443  0.82795318  0.63632546     0.96000
C857        C  0.16963844  0.67076148  0.61437892     0.95800
C858        C  0.43548093  0.85983889  0.59279139     0.02800
C859        C  0.40134102  0.84740304  0.60339648    -0.13400
C860        C  0.38927815  0.81355366  0.59094414     0.00300
C861        C  0.41187072  0.79174083  0.56687962    -0.11900
C862        C  0.44660923  0.80365314  0.55591327     0.02800
C863        C  0.45814370  0.83791971  0.56907489    -0.11300
H864        H  0.38522906  0.86289632  0.62460250     0.08300
H865        H  0.40300763  0.76515479  0.55786386     0.05900
H866        H  0.48496916  0.84711743  0.56155380     0.05700
C867        C  0.14525058  0.91015744  0.62418276     0.02800
C868        C  0.15888834  0.87775588  0.63845011    -0.13400
C869        C  0.19107838  0.86414275  0.62353485     0.00300
C870        C  0.21111873  0.88422246  0.59521651    -0.11900
C871        C  0.19844839  0.91784615  0.58188208     0.02800
C872        C  0.16520726  0.93056671  0.59619149    -0.11300
H873        H  0.14325571  0.86197113  0.65975551     0.08300
H874        H  0.23605229  0.87365244  0.58310278     0.05900
H875        H  0.15465460  0.95577619  0.58475849     0.05700
N876        N  0.47714216  0.55294973  0.76402090    -0.06500
N877        N  0.46071323  0.58301743  0.77378857    -0.58600
N878        N  0.05958300  0.52088998  0.78654389    -0.06200
N879        N  0.08993027  0.52085766  0.80707846    -0.60700
N880        N  0.05964713  0.54583350  0.75801725    -0.05800
N881        N  0.09034925  0.56338866  0.75875734    -0.58600
N882        N  0.47886082  0.53111901  0.79530547    -0.05400
N883        N  0.46391976  0.54665277  0.82756357    -0.61100
C884        C  0.45236117  0.57888126  0.81314577     0.95700
C885        C  0.10878368  0.54752252  0.78942994     0.95500
N886        N  0.05354050  0.91446476  0.76281143    -0.06700
N887        N  0.07060669  0.88467025  0.77238175    -0.59200
N888        N  0.47120700  0.94645480  0.78896130    -0.04800
N889        N  0.44100996  0.94646007  0.80989052    -0.60400
N890        N  0.47086929  0.92150928  0.76043517    -0.06700
N891        N  0.44016466  0.90393564  0.76161763    -0.59500
N892        N  0.05256103  0.93668382  0.79375614    -0.04400
N893        N  0.06866954  0.92172303  0.82562332    -0.60500
Mn894      Mn  0.01556380  0.48336308  0.79151535     1.18400
C895        C  0.08025494  0.88946691  0.81128773     0.97800
C896        C  0.42195226  0.91974625  0.79255018     0.98400
N897        N  0.05319587  0.55265507  0.66285114    -0.06700
N898        N  0.06962097  0.58277904  0.65317108    -0.63000
N899        N  0.47073175  0.52143833  0.63979097    -0.05500
N900        N  0.44062041  0.52122960  0.61881293    -0.63700
N901        N  0.47023180  0.54628611  0.66841284    -0.06200
N902        N  0.43941078  0.56366255  0.66720930    -0.63300
N903        N  0.05157337  0.53086999  0.63153161    -0.05100
N904        N  0.06644735  0.54654842  0.59931140    -0.64000
Mn905      Mn  0.01539172  0.55002078  0.71247828     1.10700
C906        C  0.07794939  0.57879848  0.61375783     0.99000
C907        C  0.42138553  0.54772877  0.63618331     0.99100
N908        N  0.47653977  0.91524195  0.66498304    -0.05800
N909        N  0.45950430  0.88540839  0.65556743    -0.61600
N910        N  0.05910833  0.94606849  0.63910014    -0.05600
N911        N  0.08968623  0.94675112  0.61899274    -0.58300
N912        N  0.05947705  0.92120714  0.66774419    -0.06900
N913        N  0.09064464  0.90441776  0.66747336    -0.61200
N914        N  0.47778744  0.93717585  0.63375880    -0.05900
N915        N  0.46198427  0.92197001  0.60190633    -0.58400
Mn916      Mn  0.01538234  0.91697188  0.71359169     1.20200
Mn917      Mn  0.01480533  0.48367811  0.63357503     1.10100
Cl918      Cl  0.01502131  0.48338784  0.71254607    -0.86300
C919        C  0.45026488  0.88990692  0.61649521     0.96000
C920        C  0.10904077  0.92062063  0.63695827     0.95800
C921        C  0.93839296  0.35802051  0.30390535     0.02800
C922        C  0.95886970  0.33749391  0.33147844    -0.13400
C923        C  0.94618287  0.30384084  0.34491424     0.00300
C924        C  0.91263575  0.29144122  0.33123938    -0.11900
C925        C  0.89232915  0.31219189  0.30394236     0.02800
C926        C  0.90574834  0.34477310  0.28987062    -0.11300
H927        H  0.98416815  0.34774042  0.34293985     0.08300
H928        H  0.90217737  0.26614600  0.34254679     0.05900
H929        H  0.88977247  0.36083043  0.26915390     0.05700
C930        C  0.84240741  0.36240709  0.09248658     0.02800
C931        C  0.87646931  0.37466326  0.10361859    -0.13400
C932        C  0.88877235  0.40848658  0.09146885     0.00300
C933        C  0.86655516  0.43047313  0.06718985    -0.11900
C934        C  0.83187310  0.41877973  0.05575810     0.02800
C935        C  0.82007570  0.38449342  0.06855534    -0.11300
H936        H  0.89230143  0.35904457  0.12498006     0.08300
H937        H  0.87565724  0.45703102  0.05837158     0.05900
H938        H  0.79327860  0.37545391  0.06067743     0.05700
C939        C  0.68316749  0.36242666  0.33575135     0.02800
C940        C  0.64910015  0.37440134  0.32383312    -0.13400
C941        C  0.63635920  0.40834594  0.33521232     0.00300
C942        C  0.65813857  0.43074501  0.35947636    -0.11900
C943        C  0.69268582  0.41940973  0.37188221     0.02800
C944        C  0.70489540  0.38498010  0.35997314    -0.11300
H945        H  0.63368462  0.35848011  0.30238616     0.08300
H946        H  0.64878609  0.45739607  0.36759377     0.05900
H947        H  0.73168093  0.37632949  0.36841771     0.05700
C948        C  0.93814131  0.11655188  0.12208312     0.02800
C949        C  0.90560841  0.12994626  0.13626562    -0.13400
C950        C  0.89249277  0.16274523  0.12247160     0.00300
C951        C  0.91290902  0.18330269  0.09508358    -0.11900
C952        C  0.94620583  0.17042362  0.08126782     0.02800
C953        C  0.95866493  0.13680872  0.09456608    -0.11300
H954        H  0.88958570  0.11394184  0.15698288     0.08300
H955        H  0.90275448  0.20874389  0.08384636     0.05900
H956        H  0.98386665  0.12638218  0.08299359     0.05700
N957        N  0.95047923  0.44329473  0.25884448    -0.06500
N958        N  0.93319618  0.41238121  0.25984913    -0.58600
N959        N  0.96590042  0.02470788  0.29398968    -0.06200
N960        N  0.95020963  0.03969179  0.32615120    -0.60700
N961        N  0.94400383  0.02596679  0.26275447    -0.05800
N962        N  0.91378152  0.04219825  0.27244095    -0.58600
N963        N  0.97540866  0.44369408  0.28736737    -0.05400
N964        N  0.97571555  0.41338053  0.30809240    -0.61100
C965        C  0.94921229  0.39413547  0.29066924     0.95700
C966        C  0.91783623  0.05086493  0.31174703     0.95500
N967        N  0.57567099  0.03198189  0.25775537    -0.06700
N968        N  0.59291984  0.06288390  0.25837132    -0.59200
N969        N  0.55967228  0.45168084  0.29359205    -0.04800
N970        N  0.57443425  0.43559023  0.32556788    -0.60400
N971        N  0.58184876  0.45036775  0.26263331    -0.06700
N972        N  0.61143686  0.43303183  0.27232956    -0.59500
N973        N  0.55061788  0.03190093  0.28616884    -0.04400
N974        N  0.55021650  0.06239882  0.30644963    -0.60500
Mn975      Mn  0.51250239  0.48821685  0.29151210     1.18400
C976        C  0.57676467  0.08139336  0.28884029     0.97800
C977        C  0.60653520  0.42361245  0.31130957     0.98400
N978        N  0.95104977  0.03188650  0.16735278    -0.06700
N979        N  0.93337356  0.06252490  0.16618978    -0.63000
N980        N  0.96603361  0.45119269  0.13229252    -0.05500
N981        N  0.95080224  0.43551873  0.10034781    -0.63700
N982        N  0.94407785  0.44991124  0.16347707    -0.06200
N983        N  0.91420106  0.43305637  0.15395954    -0.63300
N984        N  0.97598117  0.03160004  0.13880932    -0.05100
N985        N  0.97586349  0.06174163  0.11785663    -0.64000
Mn986      Mn  0.94642342  0.48763711  0.21299327     1.10700
C987        C  0.94913066  0.08068348  0.13523276     0.99000
C988        C  0.91866109  0.42396526  0.11485519     0.99100
N989        N  0.57553946  0.44355087  0.16761938    -0.06200
N990        N  0.59235141  0.41240191  0.16781097    -0.61600
N991        N  0.56139426  0.02389823  0.13114217    -0.05600
N992        N  0.57690221  0.03930470  0.09911330    -0.58300
N993        N  0.58332857  0.02509619  0.16234761    -0.06900
N994        N  0.61342642  0.04164502  0.15274950    -0.61200
N995        N  0.55078755  0.44360811  0.13891687    -0.05900
N996        N  0.55013603  0.41280612  0.11921374    -0.58400
Mn997      Mn  0.57951031  0.48808742  0.21280410     1.20200
Mn998      Mn  0.51322122  0.48757919  0.13376995     1.10100
Cl999      Cl  0.51284841  0.48796022  0.21267193    -0.86300
C1000       C  0.57624676  0.39367204  0.13750141     0.96000
C1001       C  0.60921676  0.05067065  0.11354269     0.95800
C1002       C  0.63363349  0.31227131  0.12465325     0.02800
C1003       C  0.61407066  0.29205358  0.09616842    -0.13400
C1004       C  0.58051509  0.30430136  0.08247948     0.00300
C1005       C  0.56720665  0.33737184  0.09663285    -0.11900
C1006       C  0.58709207  0.35751674  0.12496720     0.02800
C1007       C  0.61951333  0.34422153  0.13962657    -0.11300
H1008       H  0.62501404  0.26723197  0.08414089     0.08300
H1009       H  0.54199839  0.34761257  0.08489015     0.05900
H1010       H  0.63494538  0.35994433  0.16117695     0.05700
C1011       C  0.88754056  0.06601681  0.33518440     0.02800
C1012       C  0.87526271  0.10005473  0.32357957    -0.13400
C1013       C  0.84116782  0.11234366  0.33481427     0.00300
C1014       C  0.81879194  0.09006910  0.35852285    -0.11900
C1015       C  0.83045142  0.05557422  0.37085806     0.02800
C1016       C  0.86511049  0.04381887  0.35909653    -0.11300
H1017       H  0.89117872  0.11590161  0.30252642     0.08300
H1018       H  0.79202552  0.09911483  0.36653152     0.05900
H1019       H  0.87407360  0.01710763  0.36748676     0.05700
C1020       C  0.57999253  0.17118755  0.34307689     0.02800
C1021       C  0.56733903  0.13759437  0.32977759    -0.13400
C1022       C  0.58741851  0.11752271  0.30155460     0.00300
C1023       C  0.61961890  0.13110439  0.28670247    -0.11900
C1024       C  0.63303986  0.16362411  0.30080867     0.02800
C1025       C  0.61301815  0.18410147  0.32859455    -0.11300
H1026       H  0.54244694  0.12699305  0.34196609     0.08300
H1027       H  0.63538921  0.11526057  0.26558123     0.05900
H1028       H  0.62346169  0.20938715  0.33994616     0.05700
C1029       C  0.69594074  0.05639143  0.05301654     0.02800
C1030       C  0.66169858  0.04424215  0.06579088    -0.13400
C1031       C  0.63935212  0.06620295  0.09001831     0.00300
C1032       C  0.65146101  0.10038198  0.10138393    -0.11900
C1033       C  0.68521166  0.11316362  0.08932005     0.02800
C1034       C  0.70730850  0.09121584  0.06471650    -0.11300
H1035       H  0.65297828  0.01734603  0.05784686     0.08300
H1036       H  0.63574834  0.11596781  0.12287474     0.05900
H1037       H  0.73382326  0.10053628  0.05608644     0.05700
N1038       N  0.80064527  0.16831716  0.26251132    -0.06500
N1039       N  0.81728840  0.13829267  0.27208451    -0.58600
N1040       N  0.71887900  0.19986910  0.28663645    -0.06200
N1041       N  0.68824334  0.20032855  0.30655071    -0.60700
N1042       N  0.71879245  0.17508460  0.25790658    -0.05800
N1043       N  0.68776989  0.15807605  0.25792807    -0.58600
N1044       N  0.79918217  0.19016826  0.29380345    -0.05400
N1045       N  0.81446165  0.17467295  0.32586003    -0.61100
C1046       C  0.82605964  0.14250744  0.31132815     0.95700
C1047       C  0.66918038  0.17414337  0.28835399     0.95500
N1048       N  0.72534731  0.30742087  0.26352899    -0.06700
N1049       N  0.70874408  0.33742628  0.27330148    -0.59200
N1050       N  0.80676650  0.27534575  0.28813477    -0.04800
N1051       N  0.83712976  0.27498052  0.30865178    -0.60400
N1052       N  0.80710557  0.30036723  0.25970208    -0.06700
N1053       N  0.83796110  0.31764161  0.26048814    -0.59500
N1054       N  0.72611029  0.28506356  0.29436834    -0.04400
N1055       N  0.71020501  0.30011940  0.32634068    -0.60500
Mn1056     Mn  0.76271323  0.23757704  0.29219980     1.18400
C1057       C  0.69911489  0.33264209  0.31220805     0.97800
C1058       C  0.85624280  0.30154163  0.29112134     0.98400
N1059       N  0.72563865  0.16849607  0.16261736    -0.06700
N1060       N  0.70931417  0.13844677  0.15242528    -0.63000
N1061       N  0.80738584  0.20040040  0.13889455    -0.05500
N1062       N  0.83771605  0.20059058  0.11830388    -0.63700
N1063       N  0.80752961  0.17529040  0.16722323    -0.06200
N1064       N  0.83823471  0.15772637  0.16624619    -0.63300
N1065       N  0.72689817  0.19081450  0.13176457    -0.05100
N1066       N  0.71178456  0.17565727  0.09936549    -0.64000
Mn1067     Mn  0.76316780  0.17108804  0.21260354     1.10700
C1068       C  0.70052761  0.14311161  0.11322693     0.99000
C1069       C  0.85662172  0.17379501  0.13564418     0.99100
N1070       N  0.80108276  0.30720359  0.16465237    -0.06200
N1071       N  0.81798014  0.33708579  0.15515038    -0.61600
N1072       N  0.71944442  0.27595314  0.13968886    -0.05600
N1073       N  0.68897860  0.27558266  0.11942703    -0.58300
N1074       N  0.71914922  0.30077106  0.16837138    -0.06900
N1075       N  0.68816756  0.31787858  0.16798208    -0.61200
N1076       N  0.79995442  0.28519259  0.13351463    -0.05900
N1077       N  0.81575243  0.30034460  0.10162591    -0.58400
Mn1078     Mn  0.76317919  0.30465619  0.21403179     1.20200
Mn1079     Mn  0.76338803  0.23815437  0.13459207     1.10100
Cl1080     Cl  0.76309253  0.23785104  0.21339674    -0.86300
C1081       C  0.82727060  0.33250563  0.11611336     0.96000
C1082       C  0.66981261  0.30187453  0.13732603     0.95800
N1083       N  0.76303012  0.48633368  0.53940735    -0.37000
N1084       N  0.72250159  0.44774236  0.47640829    -0.57500
N1085       N  0.76023493  0.48898923  0.41261793    -0.37000
N1086       N  0.80243205  0.02572329  0.47549647    -0.57500
C1087       C  0.74460553  0.46312953  0.56334179     0.26600
C1088       C  0.78693539  0.00425328  0.56245042     0.26600
C1089       C  0.74077056  0.46618598  0.38884302     0.26600
C1090       C  0.78307343  0.50824488  0.38864727     0.26600
C1091       C  0.70649586  0.43348600  0.50968863     0.35200
C1092       C  0.70502629  0.43441621  0.44364640     0.35200
C1093       C  0.81595828  0.04251133  0.50865974     0.35200
C1094       C  0.81527898  0.04351861  0.44268193     0.35200
C1095       C  0.75633761  0.46690419  0.60311950    -0.22300
C1096       C  0.78276607  0.49288349  0.60300691    -0.22300
C1097       C  0.75109023  0.47148193  0.34876545    -0.22300
C1098       C  0.77758318  0.49782140  0.34864513    -0.22300
C1099       C  0.67880211  0.41082967  0.49794708    -0.23300
C1100       C  0.67787922  0.41136527  0.45640096    -0.23300
C1101       C  0.83779605  0.07082203  0.49679520    -0.23300
C1102       C  0.83741417  0.07145370  0.45527512    -0.23300
C1103       C  0.71697705  0.43920815  0.55066307    -0.18700
C1104       C  0.81048340  0.03209971  0.54965101    -0.18700
C1105       C  0.80880376  0.03454344  0.40134473    -0.18700
C1106       C  0.71365271  0.44121144  0.40222576    -0.18700
H1107       H  0.74677107  0.45255827  0.62961017     0.14200
H1108       H  0.80045277  0.99968987  0.62787816     0.14200
H1109       H  0.74058149  0.45784116  0.32225947     0.14200
H1110       H  0.79371462  0.00538967  0.32205107     0.14200
H1111       H  0.66124295  0.39511382  0.51723822     0.12500
H1112       H  0.65939511  0.39607237  0.43780513     0.12500
H1113       H  0.85282352  0.08904644  0.51599344     0.12500
H1114       H  0.85211123  0.09035652  0.43659919     0.12500
H1115       H  0.75906900  0.49030439  0.50889223     0.25800
H1116       H  0.75749211  0.49182071  0.44349796     0.25800
N1117       N  0.51313302  0.23849074  0.03951145    -0.37000
N1118       N  0.97537227  0.19558670  0.97562027    -0.57500
N1119       N  0.51589958  0.23505911  0.91304186    -0.37000
N1120       N  0.55577876  0.27455525  0.97667471    -0.57500
C1121       C  0.99311511  0.21519737  0.06287059     0.26600
C1122       C  0.53654187  0.25663007  0.06343355     0.26600
C1123       C  0.99631380  0.21160620  0.88842020     0.26600
C1124       C  0.54006813  0.25298739  0.88949733     0.26600
C1125       C  0.95808884  0.18259247  0.00868462     0.35200
C1126       C  0.95942432  0.18067562  0.94273480     0.35200
C1127       C  0.56816946  0.29253309  0.00961375     0.35200
C1128       C  0.56979448  0.29108634  0.94367460     0.35200
C1129       C  0.00333223  0.22010119  0.10304182    -0.22300
C1130       C  0.53254512  0.24517313  0.10328383    -0.22300
C1131       C  0.00665121  0.21727530  0.84842099    -0.22300
C1132       C  0.53670231  0.24053590  0.84992594    -0.22300
C1133       C  0.93122028  0.15903537  0.99673866    -0.23300
C1134       C  0.93206438  0.15777860  0.95523965    -0.23300
C1135       C  0.59060139  0.32027058  0.99750522    -0.23300
C1136       C  0.59166966  0.31937517  0.95598069    -0.23300
C1137       C  0.96643058  0.19050520  0.04976489    -0.18700
C1138       C  0.56074839  0.28388735  0.05070147    -0.18700
C1139       C  0.56421956  0.28095423  0.90248616    -0.18700
C1140       C  0.96895398  0.18673453  0.90144258    -0.18700
H1141       H  0.99301069  0.20628513  0.12953020     0.14200
H1142       H  0.54701701  0.25461926  0.12973679     0.14200
H1143       H  0.99613395  0.20390647  0.82174536     0.14200
H1144       H  0.55181916  0.24943869  0.82369602     0.14200
H1145       H  0.91288652  0.14409178  0.01589380     0.12500
H1146       H  0.91439429  0.14165176  0.93653352     0.12500
H1147       H  0.60489126  0.33919797  0.01656599     0.12500
H1148       H  0.60703778  0.33759198  0.93712026     0.12500
H1149       H  0.50899644  0.24262289  0.00893363     0.25800
H1150       H  0.51140747  0.23977899  0.94346034     0.25800
N1151       N  0.51539995  0.23895696  0.38710975    -0.37000
N1152       N  0.97341100  0.27469443  0.45029622    -0.57500
N1153       N  0.51690003  0.23680931  0.51396046    -0.37000
N1154       N  0.55421283  0.19703546  0.44977235    -0.57500
C1155       C  0.99427148  0.25976846  0.36354338     0.26600
C1156       C  0.53254959  0.21488651  0.36316259     0.26600
C1157       C  0.99349277  0.25666450  0.53763016     0.26600
C1158       C  0.53502137  0.21237095  0.53711883     0.26600
C1159       C  0.95597287  0.28801962  0.41742302     0.35200
C1160       C  0.95581161  0.28708444  0.48341310     0.35200
C1161       C  0.57126491  0.18496301  0.41607097     0.35200
C1162       C  0.57236364  0.18363309  0.48211058     0.35200
C1163       C  0.49318999  0.24384152  0.32425828    -0.22300
C1164       C  0.51934667  0.21764336  0.32384340    -0.22300
C1165       C  0.49585555  0.24117383  0.57711090    -0.22300
C1166       C  0.52241535  0.21490828  0.57668525    -0.22300
C1167       C  0.92738339  0.30923045  0.42972341    -0.23300
C1168       C  0.92726007  0.30868713  0.47124707    -0.23300
C1169       C  0.60011385  0.16346946  0.42711191    -0.23300
C1170       C  0.60080301  0.16260235  0.46867634    -0.23300
C1171       C  0.96620708  0.28301311  0.37633942    -0.18700
C1172       C  0.56054260  0.19126991  0.37528717    -0.18700
C1173       C  0.56303154  0.18846372  0.52365899    -0.18700
C1174       C  0.96560185  0.28094139  0.52462534    -0.18700
H1175       H  0.99864122  0.27339706  0.29813759     0.14200
H1176       H  0.52770264  0.20241030  0.29746596     0.14200
H1177       H  0.99495678  0.26619292  0.60398997     0.14200
H1178       H  0.53136313  0.19940472  0.60261410     0.14200
H1179       H  0.90870259  0.32400012  0.41083149     0.12500
H1180       H  0.90832096  0.32304684  0.49019455     0.12500
H1181       H  0.61865012  0.14946489  0.40731718     0.12500
H1182       H  0.62001441  0.14778796  0.48681632     0.12500
H1183       H  0.52110739  0.24396297  0.41727343     0.25800
H1184       H  0.52153492  0.24221026  0.48366304     0.25800
N1185       N  0.76318729  0.48362588  0.88724288    -0.37000
N1186       N  0.80361238  0.44653654  0.95067461    -0.57500
N1187       N  0.76221883  0.48550071  0.01388201    -0.37000
N1188       N  0.72571882  0.02544034  0.94907867    -0.57500
C1189       C  0.78779216  0.46637337  0.86394077     0.26600
C1190       C  0.74669089  0.00685148  0.86289660     0.26600
C1191       C  0.78599472  0.46736576  0.03775174     0.26600
C1192       C  0.74487702  0.00999632  0.03685295     0.26600
C1193       C  0.81691699  0.42890106  0.91792378     0.35200
C1194       C  0.81665161  0.42955905  0.98389483     0.35200
C1195       C  0.70845759  0.03743145  0.91549898     0.35200
C1196       C  0.70842425  0.03977068  0.98147015     0.35200
C1197       C  0.78607824  0.47964692  0.82462368    -0.22300
C1198       C  0.75997651  0.50591367  0.82433675    -0.22300
C1199       C  0.78224623  0.47977114  0.07729682    -0.22300
C1200       C  0.75485978  0.00496501  0.07707446    -0.22300
C1201       C  0.83889543  0.40094442  0.93039499    -0.23300
C1202       C  0.83877502  0.40133853  0.97192480    -0.23300
C1203       C  0.68031565  0.05978717  0.92661525    -0.23300
C1204       C  0.68032089  0.06132716  0.96813150    -0.23300
C1205       C  0.81109728  0.43835661  0.87674998    -0.18700
C1206       C  0.71852043  0.03035412  0.87472493    -0.18700
C1207       C  0.71755781  0.03458056  0.02303503    -0.18700
C1208       C  0.81040443  0.43951399  0.02501795    -0.18700
H1209       H  0.80200284  0.47133525  0.79876069     0.14200
H1210       H  0.75275688  0.02021965  0.79757619     0.14200
H1211       H  0.79704513  0.47076299  0.10371003     0.14200
H1212       H  0.74408422  0.01874162  0.10335440     0.14200
H1213       H  0.85384108  0.38232679  0.91158987     0.12500
H1214       H  0.85367621  0.38292488  0.99101347     0.12500
H1215       H  0.66181633  0.07393273  0.90690468     0.12500
H1216       H  0.66164008  0.07677184  0.98630911     0.12500
H1217       H  0.75709479  0.47808649  0.91720171     0.25800
H1218       H  0.75814041  0.48085350  0.98336385     0.25800
C1219       C  0.83952003  0.36386941  0.80435795     0.02800
C1220       C  0.81887308  0.38440744  0.83165163    -0.13400
C1221       C  0.83156456  0.41795127  0.84532577     0.00300
C1222       C  0.86533460  0.43027356  0.83200582    -0.11900
C1223       C  0.88566185  0.40954305  0.80455736     0.02800
C1224       C  0.87222681  0.37700155  0.79054072    -0.11300
H1225       H  0.79347763  0.37416798  0.84287267     0.08300
H1226       H  0.87580464  0.45551514  0.84342542     0.05900
H1227       H  0.88824506  0.36086446  0.76994750     0.05700
C1228       C  0.89065858  0.15507760  0.83511519     0.02800
C1229       C  0.90268058  0.12091551  0.82374391    -0.13400
C1230       C  0.93669501  0.10847199  0.83510495     0.00300
C1231       C  0.95911738  0.13066051  0.85898329    -0.11900
C1232       C  0.94766572  0.16535383  0.87091936     0.02800
C1233       C  0.91317816  0.17725031  0.85882088    -0.11300
H1234       H  0.88670050  0.10513561  0.80268775     0.08300
H1235       H  0.98578814  0.12148521  0.86718168     0.05900
H1236       H  0.90434517  0.20406810  0.86696661     0.05700
C1237       C  0.69887922  0.05028228  0.84248793     0.02800
C1238       C  0.71157958  0.08379722  0.82908246    -0.13400
C1239       C  0.69115776  0.10423867  0.80157531     0.00300
C1240       C  0.65856071  0.09103548  0.78729656    -0.11900
C1241       C  0.64506434  0.05850939  0.80139686     0.02800
C1242       C  0.66537307  0.03779205  0.82878069    -0.11300
H1243       H  0.73674375  0.09415154  0.84082759     0.08300
H1244       H  0.64259348  0.10716469  0.76664406     0.05900
H1245       H  0.65484127  0.01262592  0.84035632     0.05700
C1246       C  0.59461144  0.35885669  0.83515385     0.02800
C1247       C  0.62881409  0.34714233  0.82369379    -0.13400
C1248       C  0.64184171  0.31353254  0.83578820     0.00300
C1249       C  0.62019665  0.29116514  0.86027811    -0.11900
C1250       C  0.58536382  0.30220829  0.87190649     0.02800
C1251       C  0.57285556  0.33629667  0.85921744    -0.11300
H1252       H  0.64421365  0.36301646  0.80217574     0.08300
H1253       H  0.62981066  0.26475693  0.86898837     0.05900
H1254       H  0.54592922  0.34480571  0.86728242     0.05700
C1255       C  0.58414281  0.16620991  0.55379017     0.02800
C1256       C  0.61854736  0.17770428  0.56675607    -0.13400
C1257       C  0.64011683  0.15555064  0.59163569     0.00300
C1258       C  0.62723424  0.12176805  0.60333965    -0.11900
C1259       C  0.59337805  0.10955351  0.59099922     0.02800
C1260       C  0.57189612  0.13179172  0.56597889    -0.11300
H1261       H  0.62794070  0.20432245  0.55858365     0.08300
H1262       H  0.64247260  0.10605471  0.62515488     0.05900
H1263       H  0.54523157  0.12298471  0.55728493     0.05700
C1264       C  0.83974959  0.10523046  0.62282043     0.02800
C1265       C  0.81885011  0.08510107  0.59550188    -0.13400
C1266       C  0.83131867  0.05178885  0.58116405     0.00300
C1267       C  0.86508319  0.03907265  0.59392201    -0.11900
C1268       C  0.88567158  0.05926817  0.62160032     0.02800
C1269       C  0.87249900  0.09179018  0.63622872    -0.11300
H1270       H  0.79340856  0.09554197  0.58464121     0.08300
H1271       H  0.87530412  0.01392556  0.58195468     0.05900
H1272       H  0.88864649  0.10760714  0.65700186     0.05700
N1273       N  0.82794929  0.27864333  0.75947743    -0.06500
N1274       N  0.84487657  0.30972708  0.76025849    -0.58600
N1275       N  0.81300169  0.19733145  0.79401037    -0.06200
N1276       N  0.82825931  0.18157376  0.82592652    -0.60700
N1277       N  0.83515302  0.19658380  0.76298605    -0.05800
N1278       N  0.86521587  0.18003801  0.77259706    -0.58600
N1279       N  0.80324134  0.27800827  0.78823540    -0.05400
N1280       N  0.80271415  0.30832705  0.80890234    -0.61100
C1281       C  0.82886671  0.32779696  0.79118594     0.95700
C1282       C  0.86067177  0.17051990  0.81158687     0.95500
N1283       N  0.70292558  0.19017943  0.75892565    -0.06700
N1284       N  0.68576895  0.15922644  0.75903648    -0.59200
N1285       N  0.71874326  0.27064377  0.79443493    -0.04800
N1286       N  0.70376653  0.28634162  0.82651881    -0.60400
N1287       N  0.69678588  0.27234380  0.76329259    -0.06700
N1288       N  0.66716736  0.28958035  0.77296217    -0.59500
N1289       N  0.72792762  0.19005912  0.78737533    -0.04400
N1290       N  0.72835978  0.15933533  0.80722889    -0.60500
Mn1291     Mn  0.76570503  0.23391797  0.79244942     1.18400
C1292       C  0.70188948  0.14044958  0.78927462     0.97800
C1293       C  0.67179119  0.29846215  0.81211683     0.98400
N1294       N  0.82789364  0.19039579  0.66768511    -0.06700
N1295       N  0.84525634  0.15953345  0.66671337    -0.63000
N1296       N  0.81176548  0.27128415  0.63307874    -0.05500
N1297       N  0.82640404  0.28729692  0.60102252    -0.63700
N1298       N  0.83405329  0.27256954  0.66394818    -0.06200
N1299       N  0.86364660  0.28978654  0.65406379    -0.63300
N1300       N  0.80275607  0.19063530  0.63937904    -0.05100
N1301       N  0.80238971  0.16027958  0.61884025    -0.64000
Mn1302     Mn  0.83207591  0.23457236  0.71348072     1.10700
C1303       C  0.82904951  0.14120642  0.63613847     0.99000
C1304       C  0.85855791  0.29915283  0.61510799     0.99100
N1305       N  0.70256874  0.27894296  0.66793751    -0.06200
N1306       N  0.68521912  0.30979655  0.66710416    -0.61600
N1307       N  0.71771436  0.19786165  0.63294189    -0.05600
N1308       N  0.70245644  0.18220999  0.60096652    -0.58300
N1309       N  0.69567912  0.19675460  0.66403575    -0.06900
N1310       N  0.66572995  0.17997317  0.65445740    -0.61200
N1311       N  0.72731227  0.27860825  0.63923415    -0.05900
N1312       N  0.72745826  0.30892751  0.61853209    -0.58400
Mn1313     Mn  0.69873971  0.23460795  0.71362617     1.20200
Mn1314     Mn  0.76492840  0.23454151  0.63479976     1.10100
Cl1315     Cl  0.76538207  0.23437876  0.71359594    -0.86300
C1316       C  0.70100844  0.32806997  0.63618257     0.96000
C1317       C  0.67019789  0.17073408  0.61535166     0.95800
C1318       C  0.93478189  0.36003946  0.59009554     0.02800
C1319       C  0.90060209  0.34828738  0.60162730    -0.13400
C1320       C  0.88824298  0.31409518  0.59098558     0.00300
C1321       C  0.91034621  0.29131469  0.56760730    -0.11900
C1322       C  0.94483301  0.30268010  0.55509897     0.02800
C1323       C  0.95679593  0.33731288  0.56644537    -0.11300
H1324       H  0.88490637  0.36450195  0.62253988     0.08300
H1325       H  0.90117658  0.26448127  0.56000433     0.05900
H1326       H  0.98358042  0.34599765  0.55803880     0.05700
C1327       C  0.64440143  0.41023840  0.62472889     0.02800
C1328       C  0.65792928  0.37760954  0.63836831    -0.13400
C1329       C  0.69014041  0.36419711  0.62330756     0.00300
C1330       C  0.71013190  0.38461460  0.59522346    -0.11900
C1331       C  0.69743701  0.41842082  0.58241920     0.02800
C1332       C  0.66430672  0.43101122  0.59706658    -0.11300
H1333       H  0.64227029  0.36160248  0.65943832     0.08300
H1334       H  0.73506030  0.37420101  0.58293643     0.05900
H1335       H  0.65377861  0.45639957  0.58610957     0.05700
N1336       N  0.97708731  0.05271729  0.76245163    -0.06500
N1337       N  0.96024601  0.08260238  0.77214440    -0.58600
N1338       N  0.55900739  0.02228232  0.78728904    -0.06200
N1339       N  0.58967391  0.02184173  0.80720055    -0.60700
N1340       N  0.55902709  0.04711297  0.75861317    -0.05800
N1341       N  0.59006585  0.06415676  0.75867456    -0.58600
N1342       N  0.97883911  0.03087918  0.79373744    -0.05400
N1343       N  0.96358540  0.04623707  0.82589307    -0.61100
C1344       C  0.95169405  0.07832374  0.81145777     0.95700
C1345       C  0.60872630  0.04810568  0.78909863     0.95500
N1346       N  0.55244592  0.41412732  0.76341375    -0.06700
N1347       N  0.56909546  0.38408058  0.77287072    -0.59200
N1348       N  0.97131979  0.44589516  0.78745942    -0.04800
N1349       N  0.94126841  0.44628582  0.80859094    -0.60400
N1350       N  0.97046862  0.42112914  0.75872469    -0.06700
N1351       N  0.93947263  0.40408112  0.75997545    -0.59500
N1352       N  0.55176846  0.43629759  0.79442679    -0.04400
N1353       N  0.56773328  0.42107040  0.82621190    -0.60500
Mn1354     Mn  0.51519913  0.98444505  0.79268517     1.18400
C1355       C  0.57878608  0.38867568  0.81177279     0.97800
C1356       C  0.92170155  0.42005096  0.79116035     0.98400
N1357       N  0.55193093  0.05398919  0.66343037    -0.06700
N1358       N  0.56846442  0.08404498  0.65367344    -0.63000
N1359       N  0.97073649  0.02123709  0.63838172    -0.05500
N1360       N  0.94057263  0.02130475  0.61741697    -0.63700
N1361       N  0.97044694  0.04617290  0.66690811    -0.06200
N1362       N  0.93980860  0.06384318  0.66570025    -0.63300
N1363       N  0.55082120  0.03185698  0.63239895    -0.05100
N1364       N  0.56629192  0.04716449  0.60029744    -0.64000
Mn1365     Mn  0.51438528  0.05103596  0.71333900     1.10700
C1366       C  0.57752277  0.07961076  0.61451944     0.99000
C1367       C  0.92159697  0.04807665  0.63474717     0.99100
N1368       N  0.97652738  0.41459362  0.66281682    -0.05800
N1369       N  0.95951533  0.38485825  0.65294054    -0.61600
N1370       N  0.55864912  0.44639166  0.64016174    -0.05600
N1371       N  0.58920131  0.44710876  0.62009446    -0.58300
N1372       N  0.55882011  0.42125533  0.66847610    -0.06900
N1373       N  0.58985238  0.40423570  0.66801214    -0.61200
N1374       N  0.97796223  0.43675835  0.63180794    -0.05900
N1375       N  0.96223735  0.42186586  0.59968279    -0.58400
Mn1376     Mn  0.51462016  0.41711169  0.71405689     1.20200
Mn1377     Mn  0.51432631  0.98435476  0.63481378     1.10100
Cl1378     Cl  0.51467472  0.98435711  0.71375676    -0.86300
C1379       C  0.95047206  0.38966582  0.61384329     0.96000
C1380       C  0.60833398  0.42067413  0.63771959     0.95800
C1381       C  0.93945543  0.85844126  0.30350794     0.02800
C1382       C  0.95999006  0.83836342  0.33128712    -0.13400
C1383       C  0.94720121  0.80517307  0.34571049     0.00300
C1384       C  0.91341992  0.79267337  0.33265687    -0.11900
C1385       C  0.89324305  0.81279791  0.30448985     0.02800
C1386       C  0.90687165  0.84500367  0.28958868    -0.11300
H1387       H  0.98539355  0.84872326  0.34234691     0.08300
H1388       H  0.90289941  0.76768146  0.34469770     0.05900
H1389       H  0.89106746  0.86071041  0.26837136     0.05700
C1390       C  0.84358915  0.86233033  0.09199016     0.02800
C1391       C  0.87770298  0.87447478  0.10306713    -0.13400
C1392       C  0.88978766  0.90853566  0.09155388     0.00300
C1393       C  0.86744452  0.93078081  0.06772539    -0.11900
C1394       C  0.83281097  0.91910476  0.05611807     0.02800
C1395       C  0.82111350  0.88467638  0.06853584    -0.11300
H1396       H  0.89367336  0.85861672  0.12406986     0.08300
H1397       H  0.87646005  0.95747279  0.05930896     0.05900
H1398       H  0.79431372  0.87567128  0.06063091     0.05700
C1399       C  0.68397718  0.86221014  0.33516347     0.02800
C1400       C  0.65001449  0.87426288  0.32299391    -0.13400
C1401       C  0.63715853  0.90810619  0.33456461     0.00300
C1402       C  0.65881841  0.93039710  0.35908835    -0.11900
C1403       C  0.69326985  0.91895037  0.37172599     0.02800
C1404       C  0.70552335  0.88456568  0.35978123    -0.11300
H1405       H  0.63473872  0.85844572  0.30132151     0.08300
H1406       H  0.64944970  0.95702833  0.36726092     0.05900
H1407       H  0.73224435  0.87585172  0.36841075     0.05700
C1408       C  0.93905114  0.61729509  0.12298594     0.02800
C1409       C  0.90662260  0.63094285  0.13706427    -0.13400
C1410       C  0.89327632  0.66333092  0.12232865     0.00300
C1411       C  0.91364179  0.68351023  0.09447936    -0.11900
C1412       C  0.94714332  0.67063715  0.08118912     0.02800
C1413       C  0.95963388  0.63725234  0.09522012    -0.11300
H1414       H  0.89067810  0.61522491  0.15813361     0.08300
H1415       H  0.90332983  0.70863724  0.08255218     0.05900
H1416       H  0.98481375  0.62663896  0.08380412     0.05700
N1417       N  0.95095299  0.94384230  0.25914105    -0.06500
N1418       N  0.93392703  0.91280686  0.25976980    -0.58600
N1419       N  0.96532166  0.52427443  0.29375718    -0.06200
N1420       N  0.94969354  0.53919888  0.32598500    -0.60700
N1421       N  0.94329800  0.52538310  0.26263496    -0.05800
N1422       N  0.91298928  0.54136785  0.27247911    -0.58600
N1423       N  0.97583382  0.94421843  0.28769978    -0.05400
N1424       N  0.97639612  0.91377977  0.30809222    -0.61100
C1425       C  0.95008987  0.89450220  0.29039793     0.95700
C1426       C  0.91716122  0.55005630  0.31176069     0.95500
N1427       N  0.57519875  0.53242478  0.25813416    -0.06700
N1428       N  0.59269364  0.56317812  0.25878694    -0.59200
N1429       N  0.56025520  0.95134383  0.29320820    -0.04800
N1430       N  0.57521147  0.93544873  0.32520205    -0.60400
N1431       N  0.58225934  0.94979901  0.26210802    -0.06700
N1432       N  0.61187761  0.93247311  0.27170586    -0.59500
N1433       N  0.55019523  0.53237535  0.28659386    -0.04400
N1434       N  0.55010273  0.56283181  0.30699515    -0.60500
Mn1435     Mn  0.51303224  0.98792740  0.29114990     1.18400
C1436       C  0.57677568  0.58170461  0.28935005     0.97800
C1437       C  0.60721927  0.92333708  0.31079862     0.98400
N1438       N  0.95065304  0.53189908  0.16720354    -0.06700
N1439       N  0.93350075  0.56287199  0.16656031    -0.63000
N1440       N  0.96674777  0.95113169  0.13288538    -0.05500
N1441       N  0.95175939  0.93530940  0.10091660    -0.63700
N1442       N  0.94461825  0.95002379  0.16390972    -0.06200
N1443       N  0.91478713  0.93315924  0.15423441    -0.63300
N1444       N  0.97554181  0.53160310  0.13858704    -0.05100
N1445       N  0.97590087  0.56200539  0.11814634    -0.64000
Mn1446     Mn  0.94694902  0.98795508  0.21328507     1.10700
C1447       C  0.94955126  0.58118417  0.13587766     0.99000
C1448       C  0.91953315  0.92386511  0.11522031     0.99100
N1449       N  0.57586943  0.94288568  0.16709059    -0.06200
N1450       N  0.59243387  0.91159543  0.16736807    -0.61600
N1451       N  0.56052688  0.52437842  0.13163133    -0.05600
N1452       N  0.57587754  0.53992755  0.09960209    -0.58300
N1453       N  0.58238826  0.52587720  0.16287835    -0.06900
N1454       N  0.61225403  0.54285282  0.15332287    -0.61200
N1455       N  0.55121112  0.94312700  0.13826929    -0.05900
N1456       N  0.55042647  0.91230533  0.11855859    -0.58400
Mn1457     Mn  0.58004061  0.98747833  0.21233209     1.20200
Mn1458     Mn  0.51377060  0.98740201  0.13325223     1.10100
Cl1459     Cl  0.51340131  0.98768517  0.21220783    -0.86300
C1460       C  0.57632441  0.89295526  0.13698885     0.96000
C1461       C  0.60798864  0.55179178  0.11409157     0.95800
C1462       C  0.63346606  0.81126796  0.12447445     0.02800
C1463       C  0.61384133  0.79105618  0.09592346    -0.13400
C1464       C  0.58027947  0.80341221  0.08213590     0.00300
C1465       C  0.56706567  0.83653089  0.09628901    -0.11900
C1466       C  0.58697864  0.85665113  0.12460901     0.02800
C1467       C  0.61931621  0.84322846  0.13939696    -0.11300
H1468       H  0.62477813  0.76624224  0.08386937     0.08300
H1469       H  0.54191760  0.84686845  0.08448592     0.05900
H1470       H  0.63475352  0.85895386  0.16093233     0.05700
C1471       C  0.88711829  0.56563692  0.33518966     0.02800
C1472       C  0.87521146  0.59968632  0.32324889    -0.13400
C1473       C  0.84126305  0.61239258  0.33433339     0.00300
C1474       C  0.81872043  0.59064609  0.35851766    -0.11900
C1475       C  0.83005452  0.55614083  0.37126396     0.02800
C1476       C  0.86451138  0.54387695  0.35939648    -0.11300
H1477       H  0.89128483  0.61519190  0.30201889     0.08300
H1478       H  0.79207146  0.60005838  0.36647695     0.05900
H1479       H  0.87317285  0.51710521  0.36794300     0.05700
C1480       C  0.58063311  0.67129526  0.34373461     0.02800
C1481       C  0.56779364  0.63787412  0.33022948    -0.13400
C1482       C  0.58782387  0.61771408  0.30211571     0.00300
C1483       C  0.62018682  0.63113092  0.28735629    -0.11900
C1484       C  0.63384643  0.66356342  0.30157950     0.02800
C1485       C  0.61391393  0.68397937  0.32958556    -0.11300
H1486       H  0.54274006  0.62745382  0.34220053     0.08300
H1487       H  0.63582568  0.61527157  0.26612765     0.05900
H1488       H  0.62449284  0.70913457  0.34113435     0.05700
C1489       C  0.69496249  0.55608332  0.05398182     0.02800
C1490       C  0.66044535  0.54451834  0.06653411    -0.13400
C1491       C  0.63825217  0.56692154  0.09043984     0.00300
C1492       C  0.65069975  0.60106417  0.10151541    -0.11900
C1493       C  0.68466644  0.61334723  0.08952588     0.02800
C1494       C  0.70668069  0.59085369  0.06544813    -0.11300
H1495       H  0.65137709  0.51771395  0.05868737     0.08300
H1496       H  0.63506598  0.61701430  0.12273696     0.05900
H1497       H  0.73334736  0.59978435  0.05689976     0.05700
N1498       N  0.80134118  0.66842366  0.26160078    -0.06500
N1499       N  0.81781320  0.63832019  0.27128921    -0.58600
N1500       N  0.71961291  0.70012519  0.28622246    -0.06200
N1501       N  0.68918982  0.70042793  0.30661419    -0.60700
N1502       N  0.71927227  0.67540229  0.25743203    -0.05800
N1503       N  0.68826743  0.65831130  0.25787733    -0.58600
N1504       N  0.80002425  0.69033628  0.29284671    -0.05400
N1505       N  0.81517807  0.67483937  0.32495426    -0.61100
C1506       C  0.82655759  0.64257756  0.31056101     0.95700
C1507       C  0.66995075  0.67421110  0.28865980     0.95500
N1508       N  0.72630036  0.80744609  0.26288856    -0.06700
N1509       N  0.70952360  0.83734817  0.27265551    -0.59200
N1510       N  0.80790403  0.77538584  0.28753363    -0.04800
N1511       N  0.83808299  0.77521997  0.30846455    -0.60400
N1512       N  0.80827886  0.80045494  0.25914528    -0.06700
N1513       N  0.83903029  0.81795549  0.26041567    -0.59500
N1514       N  0.72726596  0.78515350  0.29377093    -0.04400
N1515       N  0.71139197  0.80013907  0.32578507    -0.60500
Mn1516     Mn  0.76370343  0.73770894  0.29145780     1.18400
C1517       C  0.70005343  0.83254645  0.31161590     0.97800
C1518       C  0.85719954  0.80195023  0.29127414     0.98400
N1519       N  0.72581409  0.66887631  0.16209304    -0.06700
N1520       N  0.70915786  0.63892391  0.15225250    -0.63000
N1521       N  0.80772288  0.70042230  0.13775408    -0.05500
N1522       N  0.83816974  0.70073579  0.11735583    -0.63700
N1523       N  0.80784042  0.67538844  0.16617581    -0.06200
N1524       N  0.83865467  0.65802392  0.16545563    -0.63300
N1525       N  0.72713388  0.69099988  0.13106427    -0.05100
N1526       N  0.71170790  0.67577522  0.09888075    -0.64000
Mn1527     Mn  0.76358391  0.67131646  0.21184111     1.10700
C1528       C  0.70021475  0.64340936  0.11308504     0.99000
C1529       C  0.85713867  0.67410597  0.13493357     0.99100
N1530       N  0.80195025  0.80711706  0.16382983    -0.06200
N1531       N  0.81923254  0.83682613  0.15453110    -0.61600
N1532       N  0.71995455  0.77600124  0.13881529    -0.05600
N1533       N  0.68930540  0.77522040  0.11888102    -0.58300
N1534       N  0.71960754  0.80072940  0.16760994    -0.06900
N1535       N  0.68831695  0.81734419  0.16757500    -0.61200
N1536       N  0.80058779  0.78525539  0.13256151    -0.05900
N1537       N  0.81656754  0.80038565  0.10076869    -0.58400
Mn1538     Mn  0.76405413  0.80472359  0.21329280     1.20200
Mn1539     Mn  0.76384456  0.73826293  0.13362592     1.10100
Cl1540     Cl  0.76385544  0.73801018  0.21256318    -0.86300
C1541       C  0.82848952  0.83232916  0.11547270     0.96000
C1542       C  0.66987364  0.80115547  0.13704020     0.95800
N1543       N  0.76249946  0.98694700  0.53907930    -0.37000
N1544       N  0.72349536  0.94697216  0.47616847    -0.57500
N1545       N  0.76039694  0.98881420  0.41224542    -0.37000
N1546       N  0.80209285  0.52623533  0.47602532    -0.57500
C1547       C  0.74535963  0.96260894  0.56279461     0.26600
C1548       C  0.78658712  0.50445854  0.56316850     0.26600
C1549       C  0.74156738  0.96537679  0.38866636     0.26600
C1550       C  0.78388498  0.00730433  0.38833892     0.26600
C1551       C  0.70698695  0.93328195  0.50945016     0.35200
C1552       C  0.70554040  0.93415982  0.44346285     0.35200
C1553       C  0.81626394  0.54236385  0.50927673     0.35200
C1554       C  0.81500749  0.54399836  0.44321560     0.35200
C1555       C  0.75861799  0.96500871  0.60209178    -0.22300
C1556       C  0.78479176  0.99122216  0.60187455    -0.22300
C1557       C  0.75282274  0.96958941  0.34874148    -0.22300
C1558       C  0.77935016  0.99586304  0.34854059    -0.22300
C1559       C  0.67875224  0.91129874  0.49776112    -0.23300
C1560       C  0.67780656  0.91185209  0.45624102    -0.23300
C1561       C  0.83848322  0.57040237  0.49745409    -0.23300
C1562       C  0.83769154  0.57146201  0.45590525    -0.23300
C1563       C  0.71746762  0.93894593  0.55039180    -0.18700
C1564       C  0.81072871  0.53183238  0.55029487    -0.18700
C1565       C  0.80820497  0.53530664  0.40180077    -0.18700
C1566       C  0.71422522  0.94073405  0.40204695    -0.18700
H1567       H  0.75033688  0.94949271  0.62828924     0.14200
H1568       H  0.79734415  0.50229588  0.62939835     0.14200
H1569       H  0.74301593  0.95516389  0.32242289     0.14200
H1570       H  0.79118648  0.50816942  0.32203470     0.14200
H1571       H  0.66074447  0.89611856  0.51706511     0.12500
H1572       H  0.65883956  0.89714252  0.43767197     0.12500
H1573       H  0.85400278  0.58817854  0.51669327     0.12500
H1574       H  0.85254890  0.59026329  0.43725783     0.12500
H1575       H  0.75697026  0.99237542  0.50897725     0.25800
H1576       H  0.75672616  0.99260333  0.44303210     0.25800
N1577       N  0.51297789  0.73763248  0.03869690    -0.37000
N1578       N  0.97539606  0.69619987  0.97520920    -0.57500
N1579       N  0.51398792  0.73662609  0.91214317    -0.37000
N1580       N  0.55457984  0.77499877  0.97603651    -0.57500
C1581       C  0.99189737  0.71750322  0.06214908     0.26600
C1582       C  0.53619314  0.75584412  0.06277002     0.26600
C1583       C  0.99461525  0.71374748  0.88784575     0.26600
C1584       C  0.53871429  0.75408567  0.88885977     0.26600
C1585       C  0.96087048  0.68049895  0.00846750     0.35200
C1586       C  0.96120386  0.67939573  0.94246670     0.35200
C1587       C  0.56694415  0.79274556  0.00916643     0.35200
C1588       C  0.56776652  0.79240145  0.94316743     0.35200
C1589       C  0.99527556  0.72949606  0.10188202    -0.22300
C1590       C  0.53180282  0.74456300  0.10263151    -0.22300
C1591       C  0.00203407  0.72218757  0.84763779    -0.22300
C1592       C  0.53625150  0.74088759  0.84951388    -0.22300
C1593       C  0.93707796  0.65373926  0.99676684    -0.23300
C1594       C  0.93724317  0.65304815  0.95521788    -0.23300
C1595       C  0.58844952  0.82127056  0.99727269    -0.23300
C1596       C  0.58899149  0.82108854  0.95572034    -0.23300
C1597       C  0.96760392  0.69027007  0.04942354    -0.18700
C1598       C  0.56036332  0.78320939  0.05021209    -0.18700
C1599       C  0.56257082  0.78227180  0.90192354    -0.18700
C1600       C  0.96884425  0.68729626  0.90107051    -0.18700
H1601       H  0.98036327  0.72043834  0.12819121     0.14200
H1602       H  0.54593233  0.75420516  0.12922622     0.14200
H1603       H  0.98974986  0.71048183  0.82092870     0.14200
H1604       H  0.55192541  0.74933803  0.82351110     0.14200
H1605       H  0.92099214  0.63654912  0.01609928     0.12500
H1606       H  0.92134553  0.63506965  0.93662725     0.12500
H1607       H  0.60251791  0.84023551  0.01648909     0.12500
H1608       H  0.60373182  0.83993827  0.93702257     0.12500
H1609       H  0.50919361  0.74155783  0.00799562     0.25800
H1610       H  0.50856915  0.74211247  0.94223220     0.25800
N1611       N  0.51577029  0.73909702  0.38752521    -0.37000
N1612       N  0.97540047  0.77624098  0.45079398    -0.57500
N1613       N  0.51637984  0.73700184  0.51416472    -0.37000
N1614       N  0.55381843  0.69680550  0.45022308    -0.57500
C1615       C  0.99135895  0.75714956  0.36389398     0.26600
C1616       C  0.53332150  0.71534029  0.36351680     0.26600
C1617       C  0.99184069  0.75382493  0.53746996     0.26600
C1618       C  0.53390955  0.71219782  0.53739393     0.26600
C1619       C  0.96241416  0.79434786  0.41821054     0.35200
C1620       C  0.96241677  0.79303055  0.48414921     0.35200
C1621       C  0.57073024  0.68415296  0.41671334     0.35200
C1622       C  0.57104010  0.68257254  0.48272509     0.35200
C1623       C  0.49462532  0.74490312  0.32433093    -0.22300
C1624       C  0.52078489  0.71869359  0.32398784    -0.22300
C1625       C  0.49481987  0.74139773  0.57709897    -0.22300
C1626       C  0.52097630  0.71474427  0.57681827    -0.22300
C1627       C  0.94078284  0.82248648  0.43090894    -0.23300
C1628       C  0.94073137  0.82167662  0.47243316    -0.23300
C1629       C  0.59848738  0.66136554  0.42802950    -0.23300
C1630       C  0.59868755  0.66034750  0.46958679    -0.23300
C1631       C  0.96798274  0.78497313  0.37698871    -0.18700
C1632       C  0.56094916  0.69132573  0.37582592    -0.18700
C1633       C  0.56168198  0.68792551  0.52416978    -0.18700
C1634       C  0.96793608  0.78220804  0.52510548    -0.18700
H1635       H  0.97757834  0.75315446  0.29850212     0.14200
H1636       H  0.52955105  0.70381230  0.29752483     0.14200
H1637       H  0.97863805  0.74795784  0.60269761     0.14200
H1638       H  0.52943017  0.69897166  0.60274926     0.14200
H1639       H  0.92608748  0.84141504  0.41224744     0.12500
H1640       H  0.92585223  0.83998594  0.49166817     0.12500
H1641       H  0.61661913  0.64664088  0.40841785     0.12500
H1642       H  0.61704792  0.64465574  0.48791814     0.12500
H1643       H  0.52087338  0.74358211  0.41788612     0.25800
H1644       H  0.52144110  0.74246170  0.48398615     0.25800
N1645       N  0.76346355  0.98252732  0.88692676    -0.37000
N1646       N  0.80457975  0.94637724  0.95086286    -0.57500
N1647       N  0.76458172  0.98704299  0.01346567    -0.37000
N1648       N  0.72479629  0.52556054  0.95001160    -0.57500
C1649       C  0.78840972  0.96544684  0.86395084     0.26600
C1650       C  0.74634678  0.50809187  0.86349958     0.26600
C1651       C  0.78691585  0.96766726  0.03785688     0.26600
C1652       C  0.74384339  0.50956988  0.03728754     0.26600
C1653       C  0.81744447  0.92825025  0.91826417     0.35200
C1654       C  0.81757187  0.92957766  0.98422049     0.35200
C1655       C  0.70816173  0.53845064  0.91647341     0.35200
C1656       C  0.70734216  0.53966697  0.98241076     0.35200
C1657       C  0.78690430  0.97856896  0.82455160    -0.22300
C1658       C  0.76062181  0.00462833  0.82387830    -0.22300
C1659       C  0.78119248  0.97846168  0.07770638    -0.22300
C1660       C  0.75584329  0.50619613  0.07700092    -0.22300
C1661       C  0.83897023  0.90001323  0.93092964    -0.23300
C1662       C  0.83911954  0.90084167  0.97245425    -0.23300
C1663       C  0.68036867  0.56124656  0.92765939    -0.23300
C1664       C  0.67986107  0.56204813  0.96916750    -0.23300
C1665       C  0.81180690  0.93764721  0.87706358    -0.18700
C1666       C  0.71833677  0.53164665  0.87568475    -0.18700
C1667       C  0.71624739  0.53401175  0.02389789    -0.18700
C1668       C  0.81150278  0.93990025  0.02527868    -0.18700
H1669       H  0.80308422  0.97028724  0.79887722     0.14200
H1670       H  0.75200562  0.52164893  0.79818353     0.14200
H1671       H  0.79437947  0.96809545  0.10457322     0.14200
H1672       H  0.74660967  0.52127597  0.10311481     0.14200
H1673       H  0.85345186  0.88093584  0.91225035     0.12500
H1674       H  0.85376877  0.88231858  0.99165280     0.12500
H1675       H  0.66245968  0.57620019  0.90800942     0.12500
H1676       H  0.66139034  0.57770345  0.98739416     0.12500
H1677       H  0.75714278  0.97691314  0.91684290     0.25800
H1678       H  0.76242517  0.98412238  0.98247268     0.25800
C1679       C  0.84013994  0.86378621  0.80414249     0.02800
C1680       C  0.81963675  0.88407607  0.83173245    -0.13400
C1681       C  0.83246380  0.91735584  0.84582032     0.00300
C1682       C  0.86621543  0.92974734  0.83260980    -0.11900
C1683       C  0.88644872  0.90922482  0.80488731     0.02800
C1684       C  0.87290142  0.87686894  0.79044598    -0.11300
H1685       H  0.79417251  0.87387384  0.84279947     0.08300
H1686       H  0.87671184  0.95489002  0.84427736     0.05900
H1687       H  0.88880236  0.86087069  0.76959772     0.05700
C1688       C  0.89094785  0.65575042  0.83399857     0.02800
C1689       C  0.90340350  0.62185825  0.82203795    -0.13400
C1690       C  0.93720571  0.60923028  0.83405950     0.00300
C1691       C  0.95926064  0.63132438  0.85845043    -0.11900
C1692       C  0.94754696  0.66589581  0.87059468     0.02800
C1693       C  0.91305183  0.67769865  0.85845827    -0.11300
H1694       H  0.88777760  0.60629086  0.80045104     0.08300
H1695       H  0.98586317  0.62216968  0.86695755     0.05900
H1696       H  0.90397775  0.70434519  0.86697264     0.05700
C1697       C  0.69846447  0.55151913  0.84370584     0.02800
C1698       C  0.71083372  0.58515032  0.83037336    -0.13400
C1699       C  0.69003968  0.60554637  0.80321583     0.00300
C1700       C  0.65733489  0.59225876  0.78938273    -0.11900
C1701       C  0.64431924  0.55944910  0.80326681     0.02800
C1702       C  0.66498766  0.53879503  0.83028759    -0.11300
H1703       H  0.73607637  0.59557204  0.84182539     0.08300
H1704       H  0.64108943  0.60836892  0.76898840     0.05900
H1705       H  0.65480958  0.51343358  0.84172876     0.05700
C1706       C  0.59481496  0.86007538  0.83550630     0.02800
C1707       C  0.62900777  0.84796092  0.82449591    -0.13400
C1708       C  0.64130581  0.81395366  0.83618666     0.00300
C1709       C  0.61899908  0.79171214  0.86011356    -0.11900
C1710       C  0.58427363  0.80328746  0.87157980     0.02800
C1711       C  0.57245793  0.83766611  0.85904594    -0.11300
H1712       H  0.64488900  0.86378857  0.80338865     0.08300
H1713       H  0.62804488  0.76503734  0.86855688     0.05900
H1714       H  0.54558036  0.84653687  0.86682030     0.05700
C1715       C  0.58281787  0.66605634  0.55454200     0.02800
C1716       C  0.61725116  0.67779067  0.56710536    -0.13400
C1717       C  0.63908768  0.65588972  0.59194138     0.00300
C1718       C  0.62645732  0.62211895  0.60396247    -0.11900
C1719       C  0.59261704  0.60966615  0.59194450     0.02800
C1720       C  0.57081443  0.63165137  0.56701999    -0.11300
H1721       H  0.62647732  0.70439062  0.55861787     0.08300
H1722       H  0.64191941  0.60658193  0.62573727     0.05900
H1723       H  0.54417010  0.62262340  0.55852889     0.05700
C1724       C  0.83979791  0.60517145  0.62331517     0.02800
C1725       C  0.81888027  0.58477097  0.59627578    -0.13400
C1726       C  0.83150017  0.55153952  0.58191290     0.00300
C1727       C  0.86537670  0.53906326  0.59459958    -0.11900
C1728       C  0.88601258  0.55952873  0.62202273     0.02800
C1729       C  0.87273858  0.59203474  0.63657007    -0.11300
H1730       H  0.79332326  0.59500900  0.58552725     0.08300
H1731       H  0.87570547  0.51394885  0.58266201     0.05900
H1732       H  0.88894668  0.60807069  0.65707499     0.05700
N1733       N  0.82759057  0.77906263  0.75868483    -0.06500
N1734       N  0.84491520  0.80992070  0.75961209    -0.58600
N1735       N  0.81286422  0.69802324  0.79363738    -0.06200
N1736       N  0.82844623  0.68241389  0.82546392    -0.60700
N1737       N  0.83476119  0.69710702  0.76239595    -0.05800
N1738       N  0.86489265  0.68056461  0.77171387    -0.58600
N1739       N  0.80289739  0.77858612  0.78745256    -0.05400
N1740       N  0.80273610  0.80879520  0.80827342    -0.61100
C1741       C  0.82910824  0.82800826  0.79063924     0.95700
C1742       C  0.86072625  0.67122447  0.81079480     0.95500
N1743       N  0.70234374  0.69079186  0.75914585    -0.06700
N1744       N  0.68479774  0.66006615  0.75991893    -0.59200
N1745       N  0.71828485  0.77126310  0.79434599    -0.04800
N1746       N  0.70332684  0.78684065  0.82653972    -0.60400
N1747       N  0.69612904  0.77274701  0.76336146    -0.06700
N1748       N  0.66636300  0.78964465  0.77328262    -0.59500
N1749       N  0.72746421  0.69079152  0.78747016    -0.04400
N1750       N  0.72759765  0.66038465  0.80790405    -0.60500
Mn1751     Mn  0.76538061  0.73458036  0.79213861     1.18400
C1752       C  0.70082845  0.64157206  0.79043927     0.97800
C1753       C  0.67110263  0.79857711  0.81241004     0.98400
N1754       N  0.82747292  0.69054084  0.66743781    -0.06700
N1755       N  0.84505689  0.65980426  0.66667066    -0.63000
N1756       N  0.81165122  0.77093453  0.63218401    -0.05500
N1757       N  0.82691706  0.78615160  0.59995151    -0.63700
N1758       N  0.83356802  0.77264206  0.66336013    -0.06200
N1759       N  0.86341816  0.78941628  0.65358680    -0.63300
N1760       N  0.80225583  0.69045671  0.63922567    -0.05100
N1761       N  0.80205861  0.65996683  0.61893034    -0.64000
Mn1762     Mn  0.83153367  0.73489354  0.71292846     1.10700
C1763       C  0.82890100  0.64117669  0.63631698     0.99000
C1764       C  0.85904541  0.79793514  0.61430712     0.99100
N1765       N  0.70225728  0.77916685  0.66792612    -0.06200
N1766       N  0.68522628  0.81019298  0.66736121    -0.61600
N1767       N  0.71696238  0.69800565  0.63292248    -0.05600
N1768       N  0.70155429  0.68237896  0.60101188    -0.58300
N1769       N  0.69490315  0.69719988  0.66402488    -0.06900
N1770       N  0.66477543  0.68072970  0.65448180    -0.61200
N1771       N  0.72696934  0.77870686  0.63916273    -0.05900
N1772       N  0.72740094  0.80914835  0.61871655    -0.58400
Mn1773     Mn  0.69817940  0.73500634  0.71363612     1.20200
Mn1774     Mn  0.76444041  0.73444237  0.63445200     1.10100
Cl1775     Cl  0.76487324  0.73467761  0.71329168    -0.86300
C1776       C  0.70118499  0.82846247  0.63657572     0.96000
C1777       C  0.66915766  0.67133015  0.61542651     0.95800
C1778       C  0.93566251  0.85911199  0.59245372     0.02800
C1779       C  0.90136865  0.84708757  0.60301271    -0.13400
C1780       C  0.88902932  0.81325055  0.59085016     0.00300
C1781       C  0.91143696  0.79110001  0.56692476    -0.11900
C1782       C  0.94631324  0.80264417  0.55595726     0.02800
C1783       C  0.95816506  0.83682354  0.56901248    -0.11300
H1784       H  0.88536236  0.86287353  0.62404316     0.08300
H1785       H  0.90231746  0.76457397  0.55800996     0.05900
H1786       H  0.98509378  0.84572440  0.56150486     0.05700
C1787       C  0.64388607  0.90989674  0.62329525     0.02800
C1788       C  0.65764006  0.87759909  0.63766671    -0.13400
C1789       C  0.69032684  0.86451324  0.62356162     0.00300
C1790       C  0.71065526  0.88497011  0.59586207    -0.11900
C1791       C  0.69771263  0.91839826  0.58220349     0.02800
C1792       C  0.66401232  0.93059348  0.59572808    -0.11300
H1793       H  0.64182704  0.86156467  0.65856391     0.08300
H1794       H  0.73597214  0.87477877  0.58436741     0.05900
H1795       H  0.65330551  0.95566486  0.58409496     0.05700
N1796       N  0.97772466  0.55272635  0.76215592    -0.06500
N1797       N  0.96108581  0.58278576  0.77156067    -0.58600
N1798       N  0.55917436  0.52156612  0.78799328    -0.06200
N1799       N  0.58963447  0.52160441  0.80832069    -0.60700
N1800       N  0.55900588  0.54659515  0.75954615    -0.05800
N1801       N  0.58965352  0.56427054  0.76015042    -0.58600
N1802       N  0.97928821  0.53103314  0.79357589    -0.05400
N1803       N  0.96411031  0.54673529  0.82560183    -0.61100
C1804       C  0.95245083  0.57885239  0.81087217     0.95700
C1805       C  0.60830446  0.54840522  0.79066381     0.95500
N1806       N  0.55294837  0.91510882  0.76333885    -0.06700
N1807       N  0.56988679  0.88524973  0.77291680    -0.59200
N1808       N  0.97189056  0.94597381  0.78815964    -0.04800
N1809       N  0.94169616  0.94635839  0.80899148    -0.60400
N1810       N  0.97143277  0.92097919  0.75970961    -0.06700
N1811       N  0.94057151  0.90369561  0.76085529    -0.59500
N1812       N  0.55200785  0.93730299  0.79432099    -0.04400
N1813       N  0.56804351  0.92228406  0.82618886    -0.60500
Mn1814     Mn  0.51530753  0.48374766  0.79302770     1.18400
C1815       C  0.57949847  0.89000093  0.81183566     0.97800
C1816       C  0.92248307  0.91980230  0.79170494     0.98400
N1817       N  0.55221387  0.55355847  0.66448148    -0.06700
N1818       N  0.56842183  0.58378973  0.65474131    -0.63000
N1819       N  0.97116721  0.52165287  0.63806322    -0.05500
N1820       N  0.94095529  0.52187098  0.61724720    -0.63700
N1821       N  0.97107467  0.54646379  0.66672408    -0.06200
N1822       N  0.94045720  0.56420911  0.66575952    -0.63300
N1823       N  0.55111585  0.53152408  0.63336204    -0.05100
N1824       N  0.56622442  0.54708517  0.60121958    -0.64000
Mn1825     Mn  0.51457694  0.55051012  0.71414830     1.10700
C1826       C  0.57724177  0.57956017  0.61549920     0.99000
C1827       C  0.92210703  0.54858741  0.63479800     0.99100
N1828       N  0.97727665  0.91442086  0.66433893    -0.05800
N1829       N  0.96013571  0.88461754  0.65503796    -0.61600
N1830       N  0.55826084  0.94657417  0.63934482    -0.05600
N1831       N  0.58849655  0.94677279  0.61858792    -0.58300
N1832       N  0.55865861  0.92168543  0.66795627    -0.06900
N1833       N  0.58952750  0.90437328  0.66701340    -0.61200
N1834       N  0.97845141  0.93634456  0.63310350    -0.05900
N1835       N  0.96245363  0.92116714  0.60135036    -0.58400
Mn1836     Mn  0.51474026  0.91765031  0.71415348     1.20200
Mn1837     Mn  0.51474869  0.48399847  0.63532924     1.10100
Cl1838     Cl  0.51482064  0.48384234  0.71416962    -0.86300
C1839       C  0.95073048  0.88912520  0.61602081     0.96000
C1840       C  0.60769027  0.92031156  0.63613124     0.95800
loop_ 
_geom_bond_atom_site_label_1 
_geom_bond_atom_site_label_2 
_geom_bond_distance 
_geom_bond_site_symmetry_2 
_ccdc_geom_bond_type 
C1            C2   1.408       .  A
C1            C6   1.389       .  A
C1           C45   1.466       .  S
C2            C3   1.407       .  A
C2            H7   1.083       .  S
C3            C4   1.408       .  A
C3          C251   1.494       .  S
C4            C5   1.409       .  A
C4            H8   1.083       .  S
C5            C6   1.390       .  A
C5          C138   1.466       .  S
C6            H9   1.084       .  S
C10          C11   1.396       .  A
C10          C15   1.409       .  A
C10         C161   1.469       .  S
C11          C12   1.397       .  A
C11          H16   1.086       .  S
C12          C13   1.410       .  A
C12          C68   1.469       .  S
C13          C14   1.412       .  A
C13          H17   1.084       .  S
C14          C15   1.413       .  A
C14         C288   1.501       .  S
C15          H18   1.084       .  S
C19          C20   1.399       .  A
C19          C24   1.411       .  A
C19         C137   1.475       .  S
C20          C21   1.398       .  A
C20          H25   1.085       .  S
C21          C22   1.410       .  A
C21          C57   1.474       .  S
C22          C23   1.413       .  A
C22          H26   1.084       .  S
C23          C24   1.414       .  A
C23         C186   1.504       .  S
C24          H27   1.083       .  S
C28          C29   1.390       .  A
C28          C33   1.405       .  A
C28          C67   1.462       .  S
C29          C30   1.390       .  A
C29          H34   1.084       .  S
C30          C31   1.406       .  A
C30         C149   1.463       .  S
C31          C32   1.405       .  A
C31          H35   1.084       .  S
C32          C33   1.404       .  A
C32         C217   1.485       .  S
C33          H36   1.084       .  S
N37          N38   1.317       .  A
N37          N43   1.320       .  A
N37         Mn66   2.237       .  S
N38          C45   1.358       .  A
N39          N41   1.313       .  A
N39          N40   1.330       .  A
N39       Mn1435   2.227   1_545  S
N40          C46   1.358       .  A
N41          N42   1.315       .  A
N41        Mn526   2.157   1_545  S
N42          C46   1.342       .  A
N43          N44   1.317       .  A
N43        Mn975   2.162       .  S
N44          C45   1.346       .  A
C46          C91   1.476       .  S
N47          N53   1.321       .  A
N47          N48   1.316       .  A
N47        Mn537   2.233   1_545  S
N48          C56   1.356       .  A
N49          N50   1.329       .  A
N49          N51   1.312       .  A
N49         Mn55   2.223       .  S
N50          C57   1.358       .  A
N51          N52   1.315       .  A
N51         Mn77   2.156       .  S
N52          C57   1.342       .  A
N53          N54   1.315       .  A
N53        Mn515   2.158   1_545  S
N54          C56   1.345       .  A
Mn55       N1419   2.229   1_455  S
Mn55        N963   2.164   1_455  S
Mn55        N513   2.165       .  S
Mn55        Cl79   2.598       .  S
C56         C102   1.460       .  S
N58          N59   1.316       .  A
N58          N64   1.321       .  A
N58        Mn526   2.235   1_545  S
N59          C67   1.356       .  A
N60          N62   1.312       .  A
N60          N61   1.329       .  A
N60        Mn998   2.221       .  S
N61          C68   1.357       .  A
N62          N63   1.314       .  A
N62         Mn66   2.150       .  S
N63          C68   1.341       .  A
N64          N65   1.316       .  A
N64       Mn1458   2.164   1_545  S
N65          C67   1.347       .  A
Mn66        N501   2.155       .  S
Mn66        N518   2.237       .  S
Mn66       Cl999   2.479       .  S
N69          N70   1.317       .  A
N69          N75   1.320       .  A
N69         Mn77   2.235       .  S
N70          C80   1.357       .  A
N71          N72   1.330       .  A
N71          N73   1.312       .  A
N71        Mn538   2.226   1_545  S
N72          C81   1.359       .  A
N73          N74   1.316       .  A
N73        Mn537   2.161   1_545  S
N74          C81   1.343       .  A
N75          N76   1.317       .  A
N75         Mn78   2.161       .  S
N76          C80   1.347       .  A
Mn77        N507   2.234       .  S
Mn77        N533   2.160       .  S
Mn77        Cl79   2.480       .  S
Mn78        N980   2.221   1_455  S
Mn78       N1444   2.159   1_455  S
Mn78        N531   2.233       .  S
Mn78        Cl79   2.599       .  S
Cl79       Mn986   2.480   1_455  S
C80          C86   1.465       .  S
C81         C111   1.477       .  S
C82          C83   1.406       .  A
C82          C87   1.390       .  A
C82         C162   1.465       .  S
C83          C84   1.405       .  A
C83          H88   1.084       .  S
C84          C85   1.405       .  A
C84         C218   1.488       .  S
C85          C86   1.406       .  A
C85          H89   1.084       .  S
C86          C87   1.391       .  A
C87          H90   1.084       .  S
C91          C92   1.397       .  A
C91          C96   1.413       .  A
C92          C93   1.397       .  A
C92          H97   1.086       .  S
C93          C94   1.410       .  A
C93         C126   1.472       .  S
C94          C95   1.414       .  A
C94          H98   1.084       .  S
C95          C96   1.415       .  A
C95         C185   1.507       .  S
C96          H99   1.083       .  S
C100        C101   1.404       .  A
C100        C105   1.404       .  A
C100        C252   1.486       .  S
C101        C102   1.405       .  A
C101        H106   1.084       .  S
C102        C103   1.388       .  A
C103        C104   1.389       .  A
C103        H107   1.084       .  S
C104        C105   1.406       .  A
C104        C127   1.461       .  S
C105        H108   1.084       .  S
C109        C110   1.415       .  A
C109        C114   1.415       .  A
C109        C287   1.509       .  S
C110        C111   1.411       .  A
C110        H115   1.083       .  S
C111        C112   1.398       .  A
C112        C113   1.399       .  A
C112        H116   1.085       .  S
C113        C114   1.413       .  A
C113        C148   1.476       .  S
C114        H117   1.083       .  S
N118        N119   1.315       .  A
N118        N124   1.312       .  A
N118       Mn147   2.158       .  S
N119        C126   1.342       .  A
N120        N122   1.320       .  A
N120        N121   1.316       .  A
N120       Mn136   2.159       .  S
N121        C127   1.345       .  A
N122        N123   1.316       .  A
N122       Mn147   2.234       .  S
N123        C127   1.357       .  A
N124        N125   1.329       .  A
N124       Mn136   2.218       .  S
N125        C126   1.357       .  A
N128        N134   1.312       .  A
N128        N129   1.315       .  A
N128       Mn158   2.154       .  S
N129        C137   1.342       .  A
N130        N131   1.317       .  A
N130        N132   1.320       .  A
N130       Mn136   2.160       .  S
N131        C138   1.346       .  A
N132        N133   1.317       .  A
N132       Mn158   2.238       .  S
N133        C138   1.358       .  A
N134        N135   1.330       .  A
N134       Mn136   2.226       .  S
N135        C137   1.359       .  A
Mn136      Cl160   2.596       .  S
N139        N140   1.315       .  A
N139        N145   1.312       .  A
N139       Mn147   2.162       .  S
N140        C148   1.343       .  A
N141        N143   1.320       .  A
N141        N142   1.317       .  A
N141       Mn159   2.162       .  S
N142        C149   1.347       .  A
N143        N144   1.316       .  A
N143       Mn147   2.233       .  S
N144        C149   1.356       .  A
N145        N146   1.330       .  A
N145       Mn159   2.220       .  S
N146        C148   1.358       .  A
Mn147      Cl160   2.479       .  S
N150        N151   1.314       .  A
N150        N156   1.312       .  A
N150       Mn158   2.153       .  S
N151        C161   1.341       .  A
N152        N153   1.316       .  A
N152        N154   1.320       .  A
N152       Mn159   2.162       .  S
N153        C162   1.346       .  A
N154        N155   1.317       .  A
N154       Mn158   2.237       .  S
N155        C162   1.357       .  A
N156        N157   1.329       .  A
N156       Mn159   2.216       .  S
N157        C161   1.357       .  A
Mn158      Cl160   2.479       .  S
Mn159      Cl160   2.596       .  S
N163        C167   1.354       .  A
N163        C628   1.353       .  A
N163        H195   1.030       .  S
N164        C171   1.355       .  A
N164        C172   1.353       .  A
N165        C170   1.363       .  A
N165        C169   1.362       .  A
N165        H196   1.034       .  S
N166        C173   1.354       .  A
N166        C174   1.353       .  A
C167        C175   1.387       .  A
C167        C183   1.420       .  A
C168        C184   1.419       .  A
C168        C636   1.387   1_545  A
C168        N623   1.353   1_545  A
C169        C177   1.388       .  A
C169        C186   1.437       .  A
C170        C178   1.387       .  A
C170        C645   1.437       .  A
C171        C183   1.419       .  A
C171        C179   1.386       .  A
C172        C186   1.421       .  A
C172        C180   1.389       .  A
C173        C181   1.386       .  A
C173        C184   1.418       .  A
C174        C182   1.389       .  A
C174        C185   1.421       .  A
C175        C176   1.378       .  A
C175        H187   1.082       .  S
C176        C628   1.388       .  A
C176        H648   1.082       .  S
C177        C178   1.388       .  A
C177        H189   1.082       .  S
C178        H650   1.082       .  S
C179        C180   1.368       .  A
C179        H191   1.082       .  S
C180        H192   1.082       .  S
C181        C182   1.368       .  A
C181        H193   1.082       .  S
C182        H194   1.082       .  S
C183        C411   1.490       .  S
C184        C346   1.487       .  S
C185        C630   1.439       .  A
H188        C636   1.082       .  S
H190        C638   1.082   1_545  S
N197        C202   1.354       .  A
N197       C1121   1.352   1_455  A
N197        H229   1.031       .  S
N198        C205   1.354   1_556  A
N198        C206   1.354       .  A
N199        C204   1.361       .  A
N199       C1123   1.362   1_455  A
N199        H230   1.029       .  S
N200        C207   1.355   1_556  A
N200        C208   1.353       .  A
C201        C209   1.387       .  A
C201        C217   1.420       .  A
C201       N1117   1.353       .  A
C202        C218   1.420       .  A
C202        C210   1.387       .  A
C203        C211   1.388       .  A
C203        C220   1.440       .  A
C203       N1119   1.363       .  A
C204        C219   1.440       .  A
C204        C212   1.388       .  A
C205        C217   1.418       .  A
C205        C213   1.386   1_554  A
C206        C220   1.422       .  A
C206        C214   1.389       .  A
C207        C215   1.385   1_554  A
C207        C218   1.419       .  A
C208        C216   1.390       .  A
C208        C219   1.424       .  A
C209       C1130   1.377       .  A
C209        H221   1.082       .  S
C210       C1129   1.377       .  A
C210        H222   1.082       .  S
C211       C1132   1.389       .  A
C211        H223   1.082       .  S
C212       C1131   1.389       .  A
C212        H224   1.082       .  S
C213        C214   1.367       .  A
C213        H225   1.082   1_556  S
C214        H226   1.082       .  S
C215        C216   1.368       .  A
C215        H227   1.082   1_556  S
C216        H228   1.082       .  S
C219        C330   1.502       .  S
C220        C312   1.507       .  S
N231        C236   1.353       .  A
N231       C1155   1.356   1_455  A
N231        H263   1.031       .  S
N232        C239   1.357       .  A
N232        C240   1.353       .  A
N233        C238   1.364       .  A
N233       C1157   1.362   1_455  A
N233        H264   1.030       .  S
N234        C241   1.355       .  A
N234        C242   1.355       .  A
C235        C251   1.419       .  A
C235       C1163   1.387       .  A
C235       N1151   1.356       .  A
C236        C252   1.419       .  A
C236        C244   1.388       .  A
C237        C254   1.439       .  A
C237       C1165   1.388       .  A
C237       N1153   1.362       .  A
C238        C253   1.441       .  A
C238        C246   1.388       .  A
C239        C251   1.418       .  A
C239        C247   1.384       .  A
C240        C254   1.423       .  A
C240        C248   1.391       .  A
C241        C249   1.386       .  A
C241        C252   1.420       .  A
C242        C250   1.388       .  A
C242        C253   1.423       .  A
C243        C244   1.377       .  A
C243       C1155   1.387   1_455  A
C243       H1175   1.082   1_455  S
C244        H256   1.082       .  S
C245        C246   1.390       .  A
C245       C1157   1.388   1_455  A
C245       H1177   1.082   1_455  S
C246        H258   1.082       .  S
C247        C248   1.367       .  A
C247        H259   1.082       .  S
C248        H260   1.082       .  S
C249        C250   1.368       .  A
C249        H261   1.082       .  S
C250        H262   1.082       .  S
C253        C335   1.512       .  S
C254        C402   1.503       .  S
H255       C1163   1.082       .  S
H257       C1165   1.082       .  S
N265        C269   1.354       .  A
N265        C730   1.353       .  A
N265        H297   1.033       .  S
N266        C273   1.354       .  A
N266        C274   1.352       .  A
N267        C271   1.362       .  A
N267        C732   1.364       .  A
N267        H298   1.030   1_554  S
N268        C275   1.354       .  A
N268        C276   1.354       .  A
C269        C277   1.387       .  A
C269        C285   1.416       .  A
C270        C286   1.419       .  A
C270        C738   1.388       .  A
C270        N725   1.353   1_545  A
C271        C279   1.388       .  A
C271        C288   1.439       .  A
C272        C287   1.439       .  A
C272        C280   1.387       .  A
C272        N727   1.364   1_545  A
C273        C285   1.415       .  A
C273        C281   1.385       .  A
C274        C288   1.421   1_556  A
C274        C282   1.391       .  A
C275        C283   1.387       .  A
C275        C286   1.418       .  A
C276        C284   1.388       .  A
C276        C287   1.421   1_556  A
C277        C278   1.376       .  A
C277        H289   1.082       .  S
C278        C730   1.388       .  A
C278        H750   1.082       .  S
C279        C740   1.389       .  A
C279        H291   1.082       .  S
C280        C739   1.389   1_545  A
C280        H292   1.082       .  S
C281        C282   1.366       .  A
C281        H293   1.082       .  S
C282        H294   1.082       .  S
C283        C284   1.367       .  A
C283        H295   1.082       .  S
C284        H296   1.082       .  S
C285        C301   1.486       .  S
C286        C317   1.485       .  S
H290        C738   1.082       .  S
C299        C300   1.405       .  A
C299        C304   1.388       .  A
C299        C361   1.461       .  S
C300        C301   1.405       .  A
C300        H305   1.084       .  S
C301        C302   1.405       .  A
C302        C303   1.405       .  A
C302        H306   1.084       .  S
C303        C304   1.389       .  A
C303        C436   1.461       .  S
C304        H307   1.084       .  S
C308        C309   1.397       .  A
C308        C313   1.412       .  A
C308        C362   1.476       .  S
C309        C310   1.398       .  A
C309        H314   1.086       .  S
C310        C311   1.412       .  A
C310        C424   1.473       .  S
C311        C312   1.414       .  A
C311        H315   1.083       .  S
C312        C313   1.416       .  A
C313        H316   1.083       .  S
C317        C318   1.403       .  A
C317        C322   1.404       .  A
C318        C319   1.405       .  A
C318        H323   1.084       .  S
C319        C320   1.389       .  A
C319        C372   1.459       .  S
C320        C321   1.388       .  A
C320        H324   1.084       .  S
C321        C322   1.405       .  A
C321        C425   1.459       .  S
C322        H325   1.084       .  S
C326        C327   1.396       .  A
C326        C331   1.410       .  A
C326        C435   1.473       .  S
C327        C328   1.398       .  A
C327        H332   1.085       .  S
C328        C329   1.411       .  A
C328        C373   1.470       .  S
C329        C330   1.413       .  A
C329        H333   1.084       .  S
C330        C331   1.413       .  A
C331        H334   1.083       .  S
C335        C336   1.416       .  A
C335        C340   1.416       .  A
C336        C337   1.414       .  A
C336        H341   1.083       .  S
C337        C338   1.400       .  A
C337        C397   1.479       .  S
C338        C339   1.400       .  A
C338        H342   1.085       .  S
C339        C340   1.413       .  A
C339        C446   1.479       .  S
C340        H343   1.083       .  S
C344        C345   1.404       .  A
C344        C349   1.389       .  A
C344        C383   1.460       .  S
C345        C346   1.403       .  A
C345        H350   1.084       .  S
C346        C347   1.407       .  A
C347        C348   1.408       .  A
C347        H351   1.083       .  S
C348        C349   1.390       .  A
C348        C447   1.465       .  S
C349        H352   1.084       .  S
N353        N354   1.316       .  A
N353        N359   1.319       .  A
N353       Mn382   2.230       .  S
N354        C361   1.357       .  A
N355        N357   1.312       .  A
N355        N356   1.330       .  A
N355       Mn371   2.225       .  S
N356        C362   1.359       .  A
N357        N358   1.315       .  A
N357       Mn382   2.157       .  S
N358        C362   1.342       .  A
N359        N360   1.316       .  A
N359       Mn371   2.158       .  S
N360        C361   1.346       .  A
N363        N369   1.320       .  A
N363        N364   1.316       .  A
N363       Mn393   2.232       .  S
N364        C372   1.356       .  A
N365        N366   1.329       .  A
N365        N367   1.313       .  A
N365       Mn371   2.217       .  S
N366        C373   1.357       .  A
N367        N368   1.314       .  A
N367       Mn393   2.154       .  S
N368        C373   1.341       .  A
N369        N370   1.315       .  A
N369       Mn371   2.157       .  S
N370        C372   1.345       .  A
Mn371      Cl395   2.594       .  S
N374        N375   1.316       .  A
N374        N380   1.320       .  A
N374       Mn382   2.229       .  S
N375        C383   1.356       .  A
N376        N378   1.313       .  A
N376        N377   1.330       .  A
N376       Mn394   2.221       .  S
N377        C384   1.358       .  A
N378        N379   1.314       .  A
N378       Mn382   2.156       .  S
N379        C384   1.342       .  A
N380        N381   1.315       .  A
N380       Mn394   2.158       .  S
N381        C383   1.346       .  A
Mn382      Cl395   2.481       .  S
C384        C400   1.472       .  S
N385        N386   1.316       .  A
N385        N391   1.320       .  A
N385       Mn393   2.235       .  S
N386        C396   1.357       .  A
N387        N388   1.331       .  A
N387        N389   1.312       .  A
N387       Mn394   2.230       .  S
N388        C397   1.360       .  A
N389        N390   1.316       .  A
N389       Mn393   2.160       .  S
N390        C397   1.343       .  A
N391        N392   1.317       .  A
N391       Mn394   2.159       .  S
N392        C396   1.346       .  A
Mn393      Cl395   2.481       .  S
Mn394      Cl395   2.595       .  S
C396        C409   1.464       .  S
C398        C399   1.397       .  A
C398        C403   1.409       .  A
C398        C459   1.471       .  S
C399        C400   1.397       .  A
C399        H404   1.085       .  S
C400        C401   1.412       .  A
C401        C402   1.413       .  A
C401        H405   1.083       .  S
C402        C403   1.413       .  A
C403        H406   1.084       .  S
C407        C408   1.388       .  A
C407        C412   1.406       .  A
C407        C460   1.463       .  S
C408        C409   1.389       .  A
C408        H413   1.084       .  S
C409        C410   1.408       .  A
C410        C411   1.407       .  A
C410        H414   1.083       .  S
C411        C412   1.406       .  A
C412        H415   1.084       .  S
N416        N417   1.314       .  A
N416        N422   1.313       .  A
N416      Mn1365   2.158       .  S
N417        C424   1.342       .  A
N418        N420   1.320       .  A
N418        N419   1.315       .  A
N418       Mn434   2.152   1_545  S
N419        C425   1.345       .  A
N420        N421   1.316       .  A
N420       Mn445   2.233       .  S
N421        C425   1.357       .  A
N422        N423   1.330       .  A
N422      Mn1354   2.222   1_545  S
N423        C424   1.358       .  A
N426        N432   1.313       .  A
N426        N427   1.316       .  A
N426       Mn456   2.158       .  S
N427        C435   1.342       .  A
N428        N429   1.316       .  A
N428        N430   1.320       .  A
N428      Mn1814   2.161       .  S
N429        C436   1.346       .  A
N430        N431   1.316       .  A
N430      Mn1376   2.230       .  S
N431        C436   1.356       .  A
N432        N433   1.329       .  A
N432       Mn894   2.227       .  S
N433        C435   1.358       .  A
Mn434      N1342   2.223   1_465  S
Mn434      N1808   2.155   1_455  S
Mn434       N892   2.227       .  S
Mn434      Cl458   2.597       .  S
N437        N438   1.315       .  A
N437        N443   1.312       .  A
N437       Mn445   2.159       .  S
N438        C446   1.342       .  A
N439        N441   1.320       .  A
N439        N440   1.317       .  A
N439      Mn1377   2.160   1_545  S
N440        C447   1.346       .  A
N441        N442   1.317       .  A
N441      Mn1365   2.238       .  S
N442        C447   1.357       .  A
N443        N444   1.331       .  A
N443       Mn457   2.230   1_545  S
N444        C446   1.360       .  A
Mn445      N1336   2.159   1_455  S
Mn445      N1361   2.236   1_455  S
Mn445      Cl458   2.479   1_545  S
N448        N449   1.315       .  A
N448        N454   1.312       .  A
N448      Mn1376   2.156       .  S
N449        C459   1.342       .  A
N450        N451   1.316       .  A
N450        N452   1.320       .  A
N450       Mn917   2.157       .  S
N451        C460   1.345       .  A
N452        N453   1.317       .  A
N452       Mn456   2.237       .  S
N453        C460   1.357       .  A
N454        N455   1.329       .  A
N454      Mn1837   2.220       .  S
N455        C459   1.358       .  A
Mn456      N1350   2.240   1_455  S
Mn456      N1368   2.161   1_455  S
Mn456      Cl918   2.481       .  S
Mn457      N1359   2.163   1_465  S
Mn457       N910   2.163       .  S
Mn457      N1834   2.222   1_455  S
Mn457      Cl458   2.597       .  S
Cl458      Mn916   2.481       .  S
C461        C462   1.407       .  A
C461        C466   1.388       .  A
C461        C505   1.464       .  S
C462        C463   1.406       .  A
C462        H467   1.084       .  S
C463        C464   1.408       .  A
C463        C711   1.493       .  S
C464        C465   1.409       .  A
C464        H468   1.083       .  S
C465        C466   1.389       .  A
C465        C598   1.466       .  S
C466        H469   1.084       .  S
C470        C471   1.396       .  A
C470        C475   1.409       .  A
C470        C621   1.470       .  S
C471        C472   1.397       .  A
C471        H476   1.086       .  S
C472        C473   1.411       .  A
C472        C528   1.471       .  S
C473        C474   1.413       .  A
C473        H477   1.083       .  S
C474        C475   1.412       .  A
C474        C748   1.502       .  S
C475        H478   1.084       .  S
C479        C480   1.399       .  A
C479        C484   1.411       .  A
C479        C597   1.473       .  S
C480        C481   1.398       .  A
C480        H485   1.085       .  S
C481        C482   1.410       .  A
C481        C517   1.473       .  S
C482        C483   1.413       .  A
C482        H486   1.084       .  S
C483        C484   1.413       .  A
C483        C646   1.503       .  S
C484        H487   1.084       .  S
C488        C489   1.389       .  A
C488        C493   1.406       .  A
C488        C527   1.461       .  S
C489        C490   1.389       .  A
C489        H494   1.084       .  S
C490        C491   1.405       .  A
C490        C609   1.461       .  S
C491        C492   1.404       .  A
C491        H495   1.084       .  S
C492        C493   1.404       .  A
C492        C677   1.485       .  S
C493        H496   1.084       .  S
N497        N498   1.317       .  A
N497        N503   1.319       .  A
N497       Mn526   2.237       .  S
N498        C505   1.358       .  A
N499        N501   1.313       .  A
N499        N500   1.330       .  A
N499       Mn975   2.223       .  S
N500        C506   1.358       .  A
N501        N502   1.315       .  A
N502        C506   1.342       .  A
N503        N504   1.316       .  A
N503      Mn1435   2.154       .  S
N504        C505   1.345       .  A
C506        C551   1.472       .  S
N507        N513   1.321       .  A
N507        N508   1.316       .  A
N508        C516   1.356       .  A
N509        N510   1.330       .  A
N509        N511   1.312       .  A
N509       Mn515   2.224       .  S
N510        C517   1.358       .  A
N511        N512   1.315       .  A
N511       Mn537   2.157       .  S
N512        C517   1.342       .  A
N513        N514   1.317       .  A
N514        C516   1.347       .  A
Mn515       N959   2.230   1_465  S
Mn515      N1423   2.155   1_455  S
Mn515      Cl539   2.596       .  S
C516        C562   1.463       .  S
N518        N519   1.316       .  A
N518        N524   1.320       .  A
N519        C527   1.357       .  A
N520        N522   1.313       .  A
N520        N521   1.330       .  A
N520      Mn1458   2.222       .  S
N521        C528   1.358       .  A
N522        N523   1.314       .  A
N522       Mn526   2.151       .  S
N523        C528   1.341       .  A
N524        N525   1.316       .  A
N524       Mn998   2.157       .  S
N525        C527   1.345       .  A
Mn526     Cl1459   2.479       .  S
N529        N530   1.317       .  A
N529        N535   1.319       .  A
N529       Mn537   2.234       .  S
N530        C540   1.357       .  A
N531        N532   1.332       .  A
N531        N533   1.312       .  A
N532        C541   1.361       .  A
N533        N534   1.316       .  A
N534        C541   1.342       .  A
N535        N536   1.317       .  A
N535       Mn538   2.162       .  S
N536        C540   1.347       .  A
Mn537      Cl539   2.481       .  S
Mn538      N1440   2.215   1_455  S
Mn538       N984   2.161   1_465  S
Mn538      Cl539   2.595       .  S
Cl539     Mn1446   2.480   1_455  S
C540        C546   1.466       .  S
C541        C571   1.481       .  S
C542        C543   1.406       .  A
C542        C547   1.389       .  A
C542        C622   1.465       .  S
C543        C544   1.405       .  A
C543        H548   1.084       .  S
C544        C545   1.406       .  A
C544        C678   1.489       .  S
C545        C546   1.408       .  A
C545        H549   1.084       .  S
C546        C547   1.391       .  A
C547        H550   1.084       .  S
C551        C552   1.396       .  A
C551        C556   1.412       .  A
C552        C553   1.396       .  A
C552        H557   1.086       .  S
C553        C554   1.410       .  A
C553        C586   1.470       .  S
C554        C555   1.414       .  A
C554        H558   1.084       .  S
C555        C556   1.414       .  A
C555        C645   1.504       .  S
C556        H559   1.083       .  S
C560        C561   1.405       .  A
C560        C565   1.403       .  A
C560        C712   1.485       .  S
C561        C562   1.406       .  A
C561        H566   1.084       .  S
C562        C563   1.390       .  A
C563        C564   1.389       .  A
C563        H567   1.084       .  S
C564        C565   1.404       .  A
C564        C587   1.462       .  S
C565        H568   1.084       .  S
C569        C570   1.417       .  A
C569        C574   1.416       .  A
C569        C747   1.511       .  S
C570        C571   1.413       .  A
C570        H575   1.083       .  S
C571        C572   1.400       .  A
C572        C573   1.400       .  A
C572        H576   1.085       .  S
C573        C574   1.414       .  A
C573        C608   1.479       .  S
C574        H577   1.083       .  S
N578        N579   1.314       .  A
N578        N584   1.313       .  A
N578       Mn607   2.155       .  S
N579        C586   1.341       .  A
N580        N582   1.320       .  A
N580        N581   1.316       .  A
N580       Mn596   2.161       .  S
N581        C587   1.346       .  A
N582        N583   1.316       .  A
N582       Mn607   2.232       .  S
N583        C587   1.356       .  A
N584        N585   1.329       .  A
N584       Mn596   2.219       .  S
N585        C586   1.358       .  A
N588        N594   1.312       .  A
N588        N589   1.314       .  A
N588       Mn618   2.152       .  S
N589        C597   1.341       .  A
N590        N591   1.317       .  A
N590        N592   1.320       .  A
N590       Mn596   2.162       .  S
N591        C598   1.346       .  A
N592        N593   1.317       .  A
N592       Mn618   2.239       .  S
N593        C598   1.358       .  A
N594        N595   1.330       .  A
N594       Mn596   2.226       .  S
N595        C597   1.359       .  A
Mn596      Cl620   2.596       .  S
N599        N600   1.316       .  A
N599        N605   1.312       .  A
N599       Mn607   2.160       .  S
N600        C608   1.343       .  A
N601        N603   1.319       .  A
N601        N602   1.316       .  A
N601       Mn619   2.158       .  S
N602        C609   1.346       .  A
N603        N604   1.316       .  A
N603       Mn607   2.230       .  S
N604        C609   1.356       .  A
N605        N606   1.331       .  A
N605       Mn619   2.228       .  S
N606        C608   1.359       .  A
Mn607      Cl620   2.480       .  S
N610        N611   1.315       .  A
N610        N616   1.312       .  A
N610       Mn618   2.153       .  S
N611        C621   1.342       .  A
N612        N613   1.316       .  A
N612        N614   1.320       .  A
N612       Mn619   2.162       .  S
N613        C622   1.346       .  A
N614        N615   1.317       .  A
N614       Mn618   2.238       .  S
N615        C622   1.357       .  A
N616        N617   1.329       .  A
N616       Mn619   2.221       .  S
N617        C621   1.357       .  A
Mn618      Cl620   2.481       .  S
Mn619      Cl620   2.595       .  S
N623        C627   1.355       .  A
N623        H655   1.034       .  S
N624        C631   1.355       .  A
N624        C632   1.353       .  A
N625        C630   1.363   1_565  A
N625        C629   1.362       .  A
N625        H656   1.034       .  S
N626        C633   1.355       .  A
N626        C634   1.353       .  A
C627        C635   1.387       .  A
C627        C643   1.419       .  A
C628        C644   1.420       .  A
C629        C637   1.387       .  A
C629        C646   1.438       .  A
C630        C638   1.387   1_545  A
C631        C643   1.417       .  A
C631        C639   1.385       .  A
C632        C646   1.421       .  A
C632        C640   1.390       .  A
C633        C641   1.386       .  A
C633        C644   1.418       .  A
C634        C642   1.389       .  A
C634        C645   1.420       .  A
C635        C636   1.376       .  A
C635        H647   1.082       .  S
C637        C638   1.388       .  A
C637        H649   1.082       .  S
C639        C640   1.367       .  A
C639        H651   1.082       .  S
C640        H652   1.082       .  S
C641        C642   1.367       .  A
C641        H653   1.082       .  S
C642        H654   1.082       .  S
C643        C871   1.490       .  S
C644        C806   1.487       .  S
N657        C662   1.354       .  A
N657       C1581   1.353   1_455  A
N657        H689   1.032       .  S
N658        C665   1.354   1_556  A
N658        C666   1.353       .  A
N659        C664   1.361       .  A
N659       C1583   1.362   1_455  A
N659        H690   1.030       .  S
N660        C667   1.354   1_556  A
N660        C668   1.352       .  A
C661        C669   1.388       .  A
C661        C677   1.419       .  A
C661       N1577   1.353       .  A
C662        C678   1.420       .  A
C662        C670   1.387       .  A
C663        C671   1.388       .  A
C663        C680   1.439       .  A
C663       N1579   1.363       .  A
C664        C679   1.441       .  A
C664        C672   1.388       .  A
C665        C677   1.418       .  A
C665        C673   1.386   1_554  A
C666        C680   1.421       .  A
C666        C674   1.390       .  A
C667        C675   1.385   1_554  A
C667        C678   1.418       .  A
C668        C676   1.390       .  A
C668        C679   1.423       .  A
C669       C1590   1.377       .  A
C669        H681   1.082       .  S
C670       C1589   1.376   1_455  A
C670        H682   1.082       .  S
C671       C1592   1.390       .  A
C671        H683   1.082       .  S
C672       C1591   1.389       .  A
C672        H684   1.082       .  S
C673        C674   1.368       .  A
C673        H685   1.082   1_556  S
C674        H686   1.082       .  S
C675        C676   1.368       .  A
C675        H687   1.082   1_556  S
C676        H688   1.082       .  S
C679        C790   1.502       .  S
C680        C772   1.505       .  S
N691        C696   1.353       .  A
N691       C1615   1.355   1_455  A
N691        H723   1.033       .  S
N692        C699   1.355       .  A
N692        C700   1.352       .  A
N693        C698   1.364       .  A
N693       C1617   1.362   1_455  A
N693        H724   1.032       .  S
N694        C701   1.354       .  A
N694        C702   1.355       .  A
C695       C1623   1.387       .  A
C695        C711   1.420       .  A
C695       N1611   1.356       .  A
C696        C712   1.419       .  A
C696        C704   1.388       .  A
C697       C1625   1.388       .  A
C697        C714   1.439       .  A
C697       N1613   1.362       .  A
C698        C713   1.439       .  A
C698        C706   1.387       .  A
C699        C711   1.417       .  A
C699        C707   1.385       .  A
C700        C714   1.422       .  A
C700        C708   1.390       .  A
C701        C709   1.387       .  A
C701        C712   1.419       .  A
C702        C710   1.388       .  A
C702        C713   1.422       .  A
C703       C1615   1.387       .  A
C703        C704   1.377   1_655  A
C703       H1635   1.082       .  S
C704        H716   1.082       .  S
C705       C1617   1.388       .  A
C705        C706   1.389   1_655  A
C705       H1637   1.082       .  S
C706        H718   1.082       .  S
C707        C708   1.368       .  A
C707        H719   1.082       .  S
C708        H720   1.082       .  S
C709        C710   1.368       .  A
C709        H721   1.082       .  S
C710        H722   1.082       .  S
C713        C795   1.511       .  S
C714        C862   1.502       .  S
H715       C1623   1.082       .  S
H717       C1625   1.082       .  S
N725        C729   1.356       .  A
N725        H757   1.034       .  S
N726        C733   1.356       .  A
N726        C734   1.353       .  A
N727        C731   1.362       .  A
N727        H758   1.031   1_554  S
N728        C735   1.354       .  A
N728        C736   1.355       .  A
C729        C737   1.387       .  A
C729        C745   1.420       .  A
C730        C746   1.417       .  A
C731        C739   1.388       .  A
C731        C748   1.439       .  A
C732        C747   1.440       .  A
C732        C740   1.387       .  A
C733        C745   1.417       .  A
C733        C741   1.385       .  A
C734        C748   1.423   1_556  A
C734        C742   1.391       .  A
C735        C743   1.386       .  A
C735        C746   1.417       .  A
C736        C744   1.388       .  A
C736        C747   1.422   1_556  A
C737        C738   1.377   1_565  A
C737        H749   1.082       .  S
C739        H751   1.082       .  S
C740        H752   1.082       .  S
C741        C742   1.367       .  A
C741        H753   1.082       .  S
C742        H754   1.082       .  S
C743        C744   1.367       .  A
C743        H755   1.082       .  S
C744        H756   1.082       .  S
C745        C761   1.493       .  S
C746        C777   1.483       .  S
C759        C760   1.408       .  A
C759        C764   1.389       .  A
C759        C821   1.466       .  S
C760        C761   1.407       .  A
C760        H765   1.084       .  S
C761        C762   1.408       .  A
C762        C763   1.408       .  A
C762        H766   1.083       .  S
C763        C764   1.390       .  A
C763        C896   1.467       .  S
C764        H767   1.084       .  S
C768        C769   1.397       .  A
C768        C773   1.410       .  A
C768        C822   1.474       .  S
C769        C770   1.398       .  A
C769        H774   1.085       .  S
C770        C771   1.412       .  A
C770        C884   1.473       .  S
C771        C772   1.414       .  A
C771        H775   1.083       .  S
C772        C773   1.414       .  A
C773        H776   1.084       .  S
C777        C778   1.403       .  A
C777        C782   1.403       .  A
C778        C779   1.404       .  A
C778        H783   1.084       .  S
C779        C780   1.389       .  A
C779        C832   1.460       .  S
C780        C781   1.389       .  A
C780        H784   1.084       .  S
C781        C782   1.404       .  A
C781        C885   1.460       .  S
C782        H785   1.084       .  S
C786        C787   1.399       .  A
C786        C791   1.410       .  A
C786        C895   1.474       .  S
C787        C788   1.399       .  A
C787        H792   1.085       .  S
C788        C789   1.410       .  A
C788        C833   1.472       .  S
C789        C790   1.413       .  A
C789        H793   1.084       .  S
C790        C791   1.413       .  A
C791        H794   1.084       .  S
C795        C796   1.415       .  A
C795        C800   1.416       .  A
C796        C797   1.411       .  A
C796        H801   1.083       .  S
C797        C798   1.398       .  A
C797        C857   1.476       .  S
C798        C799   1.399       .  A
C798        H802   1.086       .  S
C799        C800   1.414       .  A
C799        C906   1.477       .  S
C800        H803   1.083       .  S
C804        C805   1.404       .  A
C804        C809   1.388       .  A
C804        C843   1.460       .  S
C805        C806   1.403       .  A
C805        H810   1.084       .  S
C806        C807   1.406       .  A
C807        C808   1.408       .  A
C807        H811   1.083       .  S
C808        C809   1.389       .  A
C808        C907   1.464       .  S
C809        H812   1.084       .  S
N813        N814   1.317       .  A
N813        N819   1.320       .  A
N813       Mn842   2.237       .  S
N814        C821   1.358       .  A
N815        N817   1.312       .  A
N815        N816   1.329       .  A
N815       Mn831   2.222       .  S
N816        C822   1.358       .  A
N817        N818   1.316       .  A
N817       Mn842   2.160       .  S
N818        C822   1.343       .  A
N819        N820   1.317       .  A
N819       Mn831   2.160       .  S
N820        C821   1.346       .  A
N823        N829   1.320       .  A
N823        N824   1.316       .  A
N823       Mn853   2.230       .  S
N824        C832   1.356       .  A
N825        N826   1.330       .  A
N825        N827   1.312       .  A
N825       Mn831   2.220       .  S
N826        C833   1.358       .  A
N827        N828   1.314       .  A
N827       Mn853   2.156       .  S
N828        C833   1.341       .  A
N829        N830   1.315       .  A
N829       Mn831   2.158       .  S
N830        C832   1.346       .  A
Mn831      Cl855   2.596       .  S
N834        N835   1.316       .  A
N834        N840   1.320       .  A
N834       Mn842   2.233       .  S
N835        C843   1.356       .  A
N836        N838   1.313       .  A
N836        N837   1.330       .  A
N836       Mn854   2.221       .  S
N837        C844   1.358       .  A
N838        N839   1.314       .  A
N838       Mn842   2.154       .  S
N839        C844   1.341       .  A
N840        N841   1.316       .  A
N840       Mn854   2.159       .  S
N841        C843   1.346       .  A
Mn842      Cl855   2.480       .  S
C844        C860   1.471       .  S
N845        N846   1.317       .  A
N845        N851   1.320       .  A
N845       Mn853   2.235       .  S
N846        C856   1.357       .  A
N847        N848   1.330       .  A
N847        N849   1.312       .  A
N847       Mn854   2.228       .  S
N848        C857   1.359       .  A
N849        N850   1.315       .  A
N849       Mn853   2.157       .  S
N850        C857   1.342       .  A
N851        N852   1.316       .  A
N851       Mn854   2.159       .  S
N852        C856   1.346       .  A
Mn853      Cl855   2.480       .  S
Mn854      Cl855   2.598       .  S
C856        C869   1.464       .  S
C858        C859   1.396       .  A
C858        C863   1.409       .  A
C858        C919   1.470       .  S
C859        C860   1.398       .  A
C859        H864   1.086       .  S
C860        C861   1.411       .  A
C861        C862   1.413       .  A
C861        H865   1.083       .  S
C862        C863   1.412       .  A
C863        H866   1.084       .  S
C867        C868   1.389       .  A
C867        C872   1.406       .  A
C867        C920   1.464       .  S
C868        C869   1.390       .  A
C868        H873   1.084       .  S
C869        C870   1.408       .  A
C870        C871   1.406       .  A
C870        H874   1.083       .  S
C871        C872   1.405       .  A
C872        H875   1.084       .  S
N876        N877   1.314       .  A
N876        N882   1.313       .  A
N876      Mn1825   2.155       .  S
N877        C884   1.341       .  A
N878        N880   1.320       .  A
N878        N879   1.316       .  A
N878       Mn894   2.158       .  S
N879        C885   1.346       .  A
N880        N881   1.316       .  A
N880       Mn905   2.232       .  S
N881        C885   1.356       .  A
N882        N883   1.330       .  A
N882      Mn1814   2.224       .  S
N883        C884   1.359       .  A
N886        N892   1.312       .  A
N886        N887   1.315       .  A
N886       Mn916   2.156       .  S
N887        C895   1.342       .  A
N888        N889   1.318       .  A
N888        N890   1.320       .  A
N888      Mn1354   2.165       .  S
N889        C896   1.347       .  A
N890        N891   1.317       .  A
N890      Mn1836   2.237       .  S
N891        C896   1.357       .  A
N892        N893   1.330       .  A
N893        C895   1.359       .  A
Mn894      N1802   2.229   1_455  S
Mn894      N1348   2.161   1_455  S
Mn894      Cl918   2.600       .  S
N897        N898   1.315       .  A
N897        N903   1.312       .  A
N897       Mn905   2.158       .  S
N898        C906   1.342       .  A
N899        N901   1.320       .  A
N899        N900   1.316       .  A
N899      Mn1837   2.154       .  S
N900        C907   1.345       .  A
N901        N902   1.317       .  A
N901      Mn1825   2.239       .  S
N902        C907   1.358       .  A
N903        N904   1.331       .  A
N903       Mn917   2.226       .  S
N904        C906   1.359       .  A
Mn905      N1796   2.156   1_455  S
Mn905      N1821   2.237   1_455  S
Mn905      Cl918   2.477       .  S
N908        N909   1.315       .  A
N908        N914   1.313       .  A
N908      Mn1836   2.156       .  S
N909        C919   1.342       .  A
N910        N911   1.316       .  A
N910        N912   1.320       .  A
N911        C920   1.346       .  A
N912        N913   1.317       .  A
N912       Mn916   2.235       .  S
N913        C920   1.357       .  A
N914        N915   1.328       .  A
N914      Mn1377   2.220       .  S
N915        C919   1.357       .  A
Mn916      N1810   2.236   1_455  S
Mn916      N1828   2.156   1_455  S
Mn917      N1819   2.157   1_455  S
Mn917      N1374   2.219   1_455  S
Mn917      Cl918   2.600       .  S
C921        C922   1.409       .  A
C921        C926   1.390       .  A
C921        C965   1.468       .  S
C922        C923   1.408       .  A
C922        H927   1.083       .  S
C923        C924   1.405       .  A
C923       C1171   1.492       .  S
C924        C925   1.405       .  A
C924        H928   1.084       .  S
C925        C926   1.390       .  A
C925       C1058   1.462       .  S
C926        H929   1.084       .  S
C930        C931   1.396       .  A
C930        C935   1.409       .  A
C930       C1081   1.469       .  S
C931        C932   1.397       .  A
C931        H936   1.086       .  S
C932        C933   1.411       .  A
C932        C988   1.470       .  S
C933        C934   1.413       .  A
C933        H937   1.083       .  S
C934        C935   1.412       .  A
C934       C1208   1.502       .  S
C935        H938   1.084       .  S
C939        C940   1.400       .  A
C939        C944   1.412       .  A
C939       C1057   1.476       .  S
C940        C941   1.399       .  A
C940        H945   1.085       .  S
C941        C942   1.410       .  A
C941        C977   1.474       .  S
C942        C943   1.413       .  A
C942        H946   1.084       .  S
C943        C944   1.414       .  A
C943       C1106   1.504       .  S
C944        H947   1.083       .  S
C948        C949   1.390       .  A
C948        C953   1.404       .  A
C948        C987   1.460       .  S
C949        C950   1.390       .  A
C949        H954   1.084       .  S
C950        C951   1.405       .  A
C950       C1069   1.462       .  S
C951        C952   1.404       .  A
C951        H955   1.084       .  S
C952        C953   1.403       .  A
C952       C1137   1.483       .  S
C953        H956   1.084       .  S
N957        N958   1.317       .  A
N957        N963   1.320       .  A
N957       Mn986   2.240       .  S
N958        C965   1.358       .  A
N959        N961   1.313       .  A
N959        N960   1.331       .  A
N960        C966   1.359       .  A
N961        N962   1.315       .  A
N961      Mn1446   2.159   1_545  S
N962        C966   1.342       .  A
N963        N964   1.317       .  A
N964        C965   1.347       .  A
C966       C1011   1.477       .  S
N967        N973   1.320       .  A
N967        N968   1.316       .  A
N967      Mn1457   2.236   1_545  S
N968        C976   1.357       .  A
N969        N970   1.329       .  A
N969        N971   1.312       .  A
N969       Mn975   2.220       .  S
N970        C977   1.358       .  A
N971        N972   1.315       .  A
N971       Mn997   2.160       .  S
N972        C977   1.342       .  A
N973        N974   1.316       .  A
N973      Mn1435   2.158   1_545  S
N974        C976   1.345       .  A
Mn975      N1433   2.165       .  S
Mn975      Cl999   2.595       .  S
C976       C1022   1.462       .  S
N978        N979   1.316       .  A
N978        N984   1.320       .  A
N978      Mn1446   2.231   1_545  S
N979        C987   1.356       .  A
N980        N982   1.313       .  A
N980        N981   1.329       .  A
N981        C988   1.357       .  A
N982        N983   1.314       .  A
N982       Mn986   2.152       .  S
N983        C988   1.341       .  A
N984        N985   1.316       .  A
N985        C987   1.346       .  A
Mn986      N1421   2.157       .  S
Mn986      N1438   2.237       .  S
N989        N990   1.316       .  A
N989        N995   1.319       .  A
N989       Mn997   2.231       .  S
N990       C1000   1.356       .  A
N991        N992   1.331       .  A
N991        N993   1.313       .  A
N991      Mn1458   2.233   1_545  S
N992       C1001   1.360       .  A
N993        N994   1.316       .  A
N993      Mn1457   2.163   1_545  S
N994       C1001   1.343       .  A
N995        N996   1.316       .  A
N995       Mn998   2.157       .  S
N996       C1000   1.346       .  A
Mn997      N1427   2.229       .  S
Mn997      N1453   2.165       .  S
Mn997      Cl999   2.480       .  S
Mn998      N1451   2.230       .  S
Mn998      Cl999   2.597       .  S
C1000      C1006   1.463       .  S
C1001      C1031   1.480       .  S
C1002      C1003   1.405       .  A
C1002      C1007   1.389       .  A
C1002      C1082   1.461       .  S
C1003      C1004   1.403       .  A
C1003      H1008   1.084       .  S
C1004      C1005   1.405       .  A
C1004      C1138   1.487       .  S
C1005      C1006   1.407       .  A
C1005      H1009   1.084       .  S
C1006      C1007   1.390       .  A
C1007      H1010   1.084       .  S
C1011      C1012   1.399       .  A
C1011      C1016   1.413       .  A
C1012      C1013   1.398       .  A
C1012      H1017   1.085       .  S
C1013      C1014   1.410       .  A
C1013      C1046   1.473       .  S
C1014      C1015   1.413       .  A
C1014      H1018   1.084       .  S
C1015      C1016   1.416       .  A
C1015      C1105   1.506       .  S
C1016      H1019   1.083       .  S
C1020      C1021   1.405       .  A
C1020      C1025   1.403       .  A
C1020      C1172   1.485       .  S
C1021      C1022   1.406       .  A
C1021      H1026   1.084       .  S
C1022      C1023   1.389       .  A
C1023      C1024   1.388       .  A
C1023      H1027   1.084       .  S
C1024      C1025   1.404       .  A
C1024      C1047   1.459       .  S
C1025      H1028   1.084       .  S
C1029      C1030   1.416       .  A
C1029      C1034   1.416       .  A
C1029      C1207   1.509       .  S
C1030      C1031   1.412       .  A
C1030      H1035   1.083       .  S
C1031      C1032   1.399       .  A
C1032      C1033   1.400       .  A
C1032      H1036   1.085       .  S
C1033      C1034   1.413       .  A
C1033      C1068   1.478       .  S
C1034      H1037   1.083       .  S
N1038      N1039   1.315       .  A
N1038      N1044   1.313       .  A
N1038     Mn1067   2.157       .  S
N1039      C1046   1.342       .  A
N1040      N1042   1.320       .  A
N1040      N1041   1.315       .  A
N1040     Mn1056   2.158       .  S
N1041      C1047   1.345       .  A
N1042      N1043   1.316       .  A
N1042     Mn1067   2.230       .  S
N1043      C1047   1.356       .  A
N1044      N1045   1.330       .  A
N1044     Mn1056   2.225       .  S
N1045      C1046   1.358       .  A
N1048      N1054   1.312       .  A
N1048      N1049   1.315       .  A
N1048     Mn1078   2.156       .  S
N1049      C1057   1.342       .  A
N1050      N1051   1.316       .  A
N1050      N1052   1.320       .  A
N1050     Mn1056   2.162       .  S
N1051      C1058   1.347       .  A
N1052      N1053   1.316       .  A
N1052     Mn1078   2.226       .  S
N1053      C1058   1.356       .  A
N1054      N1055   1.331       .  A
N1054     Mn1056   2.231       .  S
N1055      C1057   1.360       .  A
Mn1056    Cl1080   2.594       .  S
N1059      N1060   1.315       .  A
N1059      N1065   1.312       .  A
N1059     Mn1067   2.160       .  S
N1060      C1068   1.342       .  A
N1061      N1063   1.319       .  A
N1061      N1062   1.316       .  A
N1061     Mn1079   2.161       .  S
N1062      C1069   1.346       .  A
N1063      N1064   1.316       .  A
N1063     Mn1067   2.232       .  S
N1064      C1069   1.356       .  A
N1065      N1066   1.331       .  A
N1065     Mn1079   2.225       .  S
N1066      C1068   1.359       .  A
Mn1067    Cl1080   2.482       .  S
N1070      N1071   1.314       .  A
N1070      N1076   1.312       .  A
N1070     Mn1078   2.154       .  S
N1071      C1081   1.342       .  A
N1072      N1073   1.315       .  A
N1072      N1074   1.320       .  A
N1072     Mn1079   2.162       .  S
N1073      C1082   1.346       .  A
N1074      N1075   1.317       .  A
N1074     Mn1078   2.228       .  S
N1075      C1082   1.356       .  A
N1076      N1077   1.328       .  A
N1076     Mn1079   2.216       .  S
N1077      C1081   1.357       .  A
Mn1078    Cl1080   2.484       .  S
Mn1079    Cl1080   2.594       .  S
N1083      C1548   1.354       .  A
N1083      C1087   1.355       .  A
N1083      H1115   1.026       .  S
N1084      C1091   1.355       .  A
N1084      C1092   1.353       .  A
N1085      C1090   1.363       .  A
N1085      C1089   1.362       .  A
N1085      H1116   1.027       .  S
N1086      C1093   1.354       .  A
N1086      C1094   1.354       .  A
C1087      C1095   1.387       .  A
C1087      C1103   1.422       .  A
C1088      C1104   1.420       .  A
C1088      C1556   1.387   1_545  A
C1088      N1543   1.354   1_545  A
C1089      C1097   1.388       .  A
C1089      C1106   1.440       .  A
C1090      C1565   1.440       .  A
C1090      C1098   1.388       .  A
C1091      C1103   1.420       .  A
C1091      C1099   1.386       .  A
C1092      C1106   1.423       .  A
C1092      C1100   1.390       .  A
C1093      C1101   1.386       .  A
C1093      C1104   1.418       .  A
C1094      C1102   1.389       .  A
C1094      C1105   1.422       .  A
C1095      C1096   1.378       .  A
C1095      H1107   1.082       .  S
C1096      C1548   1.387       .  A
C1096      H1568   1.082       .  S
C1097      C1098   1.389       .  A
C1097      H1109   1.082       .  S
C1098      H1570   1.082       .  S
C1099      C1100   1.368       .  A
C1099      H1111   1.082       .  S
C1100      H1112   1.082       .  S
C1101      C1102   1.367       .  A
C1101      H1113   1.082       .  S
C1102      H1114   1.082       .  S
C1103      C1331   1.489       .  S
C1104      C1266   1.488       .  S
C1105      C1550   1.438       .  A
H1108      C1556   1.082       .  S
H1110      C1558   1.082   1_545  S
N1117      C1122   1.354       .  A
N1117      H1149   1.030       .  S
N1118      C1125   1.353   1_556  A
N1118      C1126   1.353       .  A
N1119      C1124   1.361       .  A
N1119      H1150   1.030       .  S
N1120      C1127   1.355   1_556  A
N1120      C1128   1.353       .  A
C1121      C1129   1.388   1_655  A
C1121      C1137   1.419       .  A
C1122      C1138   1.419       .  A
C1122      C1130   1.387       .  A
C1123      C1131   1.388   1_655  A
C1123      C1140   1.440       .  A
C1124      C1139   1.439       .  A
C1124      C1132   1.388       .  A
C1125      C1137   1.418       .  A
C1125      C1133   1.386   1_554  A
C1126      C1140   1.423       .  A
C1126      C1134   1.389       .  A
C1127      C1135   1.385   1_554  A
C1127      C1138   1.417       .  A
C1128      C1136   1.390       .  A
C1128      C1139   1.422       .  A
C1129      H1141   1.082   1_455  S
C1130      H1142   1.082       .  S
C1131      H1143   1.082   1_455  S
C1132      H1144   1.082       .  S
C1133      C1134   1.367       .  A
C1133      H1145   1.082   1_556  S
C1134      H1146   1.082       .  S
C1135      C1136   1.368       .  A
C1135      H1147   1.082   1_556  S
C1136      H1148   1.082       .  S
C1139      C1250   1.502       .  S
C1140      C1232   1.506       .  S
N1151      C1156   1.353       .  A
N1151      H1183   1.032       .  S
N1152      C1159   1.355       .  A
N1152      C1160   1.352       .  A
N1153      C1158   1.364       .  A
N1153      H1184   1.032       .  S
N1154      C1161   1.354       .  A
N1154      C1162   1.356       .  A
C1155      C1171   1.419       .  A
C1156      C1172   1.419       .  A
C1156      C1164   1.388       .  A
C1157      C1174   1.440       .  A
C1158      C1173   1.440       .  A
C1158      C1166   1.387       .  A
C1159      C1171   1.417       .  A
C1159      C1167   1.385       .  A
C1160      C1174   1.423       .  A
C1160      C1168   1.391       .  A
C1161      C1169   1.387       .  A
C1161      C1172   1.420       .  A
C1162      C1170   1.388       .  A
C1162      C1173   1.422       .  A
C1163      C1164   1.377       .  A
C1164      H1176   1.082       .  S
C1165      C1166   1.389       .  A
C1166      H1178   1.082       .  S
C1167      C1168   1.367       .  A
C1167      H1179   1.082       .  S
C1168      H1180   1.082       .  S
C1169      C1170   1.369       .  A
C1169      H1181   1.082       .  S
C1170      H1182   1.082       .  S
C1173      C1255   1.512       .  S
C1174      C1322   1.502       .  S
N1185      C1650   1.353       .  A
N1185      C1189   1.356       .  A
N1185      H1217   1.033       .  S
N1186      C1193   1.355       .  A
N1186      C1194   1.353       .  A
N1187      C1652   1.364       .  A
N1187      C1191   1.362       .  A
N1187      H1218   1.031   1_554  S
N1188      C1195   1.354       .  A
N1188      C1196   1.355       .  A
C1189      C1197   1.387       .  A
C1189      C1205   1.419       .  A
C1190      C1206   1.419       .  A
C1190      C1658   1.387       .  A
C1190      N1645   1.354   1_545  A
C1191      C1199   1.388       .  A
C1191      C1208   1.440       .  A
C1192      C1207   1.441       .  A
C1192      C1200   1.388       .  A
C1192      N1647   1.363   1_545  A
C1193      C1205   1.417       .  A
C1193      C1201   1.385       .  A
C1194      C1208   1.422   1_556  A
C1194      C1202   1.391       .  A
C1195      C1203   1.386       .  A
C1195      C1206   1.418       .  A
C1196      C1204   1.389       .  A
C1196      C1207   1.423   1_556  A
C1197      C1198   1.377       .  A
C1197      H1209   1.082       .  S
C1198      C1650   1.388       .  A
C1198      H1670   1.082       .  S
C1199      C1660   1.389       .  A
C1199      H1211   1.082       .  S
C1200      C1659   1.390   1_545  A
C1200      H1212   1.082       .  S
C1201      C1202   1.367       .  A
C1201      H1213   1.082       .  S
C1202      H1214   1.082       .  S
C1203      C1204   1.368       .  A
C1203      H1215   1.082       .  S
C1204      H1216   1.082       .  S
C1205      C1221   1.492       .  S
C1206      C1237   1.486       .  S
H1210      C1658   1.082       .  S
C1219      C1220   1.407       .  A
C1219      C1224   1.388       .  A
C1219      C1281   1.464       .  S
C1220      C1221   1.407       .  A
C1220      H1225   1.084       .  S
C1221      C1222   1.407       .  A
C1222      C1223   1.408       .  A
C1222      H1226   1.083       .  S
C1223      C1224   1.388       .  A
C1223      C1356   1.465       .  S
C1224      H1227   1.084       .  S
C1228      C1229   1.398       .  A
C1228      C1233   1.411       .  A
C1228      C1282   1.475       .  S
C1229      C1230   1.398       .  A
C1229      H1234   1.085       .  S
C1230      C1231   1.412       .  A
C1230      C1344   1.474       .  S
C1231      C1232   1.414       .  A
C1231      H1235   1.083       .  S
C1232      C1233   1.414       .  A
C1233      H1236   1.084       .  S
C1237      C1238   1.404       .  A
C1237      C1242   1.405       .  A
C1238      C1239   1.405       .  A
C1238      H1243   1.084       .  S
C1239      C1240   1.390       .  A
C1239      C1292   1.461       .  S
C1240      C1241   1.389       .  A
C1240      H1244   1.084       .  S
C1241      C1242   1.406       .  A
C1241      C1345   1.463       .  S
C1242      H1245   1.084       .  S
C1246      C1247   1.397       .  A
C1246      C1251   1.409       .  A
C1246      C1355   1.472       .  S
C1247      C1248   1.398       .  A
C1247      H1252   1.085       .  S
C1248      C1249   1.411       .  A
C1248      C1293   1.471       .  S
C1249      C1250   1.412       .  A
C1249      H1253   1.084       .  S
C1250      C1251   1.413       .  A
C1251      H1254   1.084       .  S
C1255      C1256   1.415       .  A
C1255      C1260   1.416       .  A
C1256      C1257   1.412       .  A
C1256      H1261   1.083       .  S
C1257      C1258   1.398       .  A
C1257      C1317   1.477       .  S
C1258      C1259   1.399       .  A
C1258      H1262   1.086       .  S
C1259      C1260   1.414       .  A
C1259      C1366   1.479       .  S
C1260      H1263   1.083       .  S
C1264      C1265   1.405       .  A
C1264      C1269   1.389       .  A
C1264      C1303   1.463       .  S
C1265      C1266   1.404       .  A
C1265      H1270   1.084       .  S
C1266      C1267   1.406       .  A
C1267      C1268   1.407       .  A
C1267      H1271   1.083       .  S
C1268      C1269   1.391       .  A
C1268      C1367   1.465       .  S
C1269      H1272   1.084       .  S
N1273      N1274   1.316       .  A
N1273      N1279   1.320       .  A
N1273     Mn1302   2.236       .  S
N1274      C1281   1.357       .  A
N1275      N1277   1.313       .  A
N1275      N1276   1.330       .  A
N1275     Mn1291   2.225       .  S
N1276      C1282   1.359       .  A
N1277      N1278   1.315       .  A
N1277     Mn1302   2.159       .  S
N1278      C1282   1.342       .  A
N1279      N1280   1.317       .  A
N1279     Mn1291   2.158       .  S
N1280      C1281   1.346       .  A
N1283      N1289   1.320       .  A
N1283      N1284   1.316       .  A
N1283     Mn1313   2.231       .  S
N1284      C1292   1.356       .  A
N1285      N1286   1.329       .  A
N1285      N1287   1.312       .  A
N1285     Mn1291   2.218       .  S
N1286      C1293   1.358       .  A
N1287      N1288   1.314       .  A
N1287     Mn1313   2.156       .  S
N1288      C1293   1.342       .  A
N1289      N1290   1.316       .  A
N1289     Mn1291   2.159       .  S
N1290      C1292   1.346       .  A
Mn1291    Cl1315   2.596       .  S
N1294      N1295   1.317       .  A
N1294      N1300   1.320       .  A
N1294     Mn1302   2.235       .  S
N1295      C1303   1.357       .  A
N1296      N1298   1.312       .  A
N1296      N1297   1.328       .  A
N1296     Mn1314   2.215       .  S
N1297      C1304   1.357       .  A
N1298      N1299   1.314       .  A
N1298     Mn1302   2.159       .  S
N1299      C1304   1.342       .  A
N1300      N1301   1.316       .  A
N1300     Mn1314   2.161       .  S
N1301      C1303   1.346       .  A
Mn1302    Cl1315   2.481       .  S
C1304      C1320   1.469       .  S
N1305      N1306   1.317       .  A
N1305      N1311   1.319       .  A
N1305     Mn1313   2.236       .  S
N1306      C1316   1.357       .  A
N1307      N1308   1.330       .  A
N1307      N1309   1.312       .  A
N1307     Mn1314   2.225       .  S
N1308      C1317   1.359       .  A
N1309      N1310   1.315       .  A
N1309     Mn1313   2.158       .  S
N1310      C1317   1.343       .  A
N1311      N1312   1.317       .  A
N1311     Mn1314   2.160       .  S
N1312      C1316   1.346       .  A
Mn1313    Cl1315   2.479       .  S
Mn1314    Cl1315   2.594       .  S
C1316      C1329   1.465       .  S
C1318      C1319   1.397       .  A
C1318      C1323   1.411       .  A
C1318      C1379   1.471       .  S
C1319      C1320   1.397       .  A
C1319      H1324   1.085       .  S
C1320      C1321   1.409       .  A
C1321      C1322   1.412       .  A
C1321      H1325   1.084       .  S
C1322      C1323   1.413       .  A
C1323      H1326   1.083       .  S
C1327      C1328   1.388       .  A
C1327      C1332   1.405       .  A
C1327      C1380   1.461       .  S
C1328      C1329   1.389       .  A
C1328      H1333   1.084       .  S
C1329      C1330   1.409       .  A
C1330      C1331   1.407       .  A
C1330      H1334   1.083       .  S
C1331      C1332   1.404       .  A
C1332      H1335   1.084       .  S
N1336      N1337   1.315       .  A
N1336      N1342   1.313       .  A
N1337      C1344   1.342       .  A
N1338      N1340   1.320       .  A
N1338      N1339   1.316       .  A
N1338     Mn1354   2.160   1_545  S
N1339      C1345   1.346       .  A
N1340      N1341   1.317       .  A
N1340     Mn1365   2.236       .  S
N1341      C1345   1.357       .  A
N1342      N1343   1.330       .  A
N1343      C1344   1.358       .  A
N1346      N1352   1.312       .  A
N1346      N1347   1.315       .  A
N1346     Mn1376   2.152       .  S
N1347      C1355   1.341       .  A
N1348      N1349   1.317       .  A
N1348      N1350   1.320       .  A
N1349      C1356   1.346       .  A
N1350      N1351   1.317       .  A
N1351      C1356   1.358       .  A
N1352      N1353   1.330       .  A
N1352     Mn1814   2.226       .  S
N1353      C1355   1.359       .  A
Mn1354     N1812   2.225       .  S
Mn1354    Cl1378   2.598       .  S
N1357      N1358   1.315       .  A
N1357      N1363   1.312       .  A
N1357     Mn1365   2.159       .  S
N1358      C1366   1.342       .  A
N1359      N1361   1.320       .  A
N1359      N1360   1.317       .  A
N1360      C1367   1.347       .  A
N1361      N1362   1.316       .  A
N1362      C1367   1.357       .  A
N1363      N1364   1.331       .  A
N1363     Mn1377   2.229   1_545  S
N1364      C1366   1.360       .  A
Mn1365    Cl1378   2.479   1_545  S
N1368      N1369   1.315       .  A
N1368      N1374   1.313       .  A
N1369      C1379   1.342       .  A
N1370      N1371   1.315       .  A
N1370      N1372   1.320       .  A
N1370     Mn1837   2.156       .  S
N1371      C1380   1.345       .  A
N1372      N1373   1.317       .  A
N1372     Mn1376   2.231       .  S
N1373      C1380   1.357       .  A
N1374      N1375   1.329       .  A
N1375      C1379   1.357       .  A
Mn1376    Cl1838   2.481       .  S
Mn1377     N1830   2.160       .  S
Mn1377    Cl1378   2.599       .  S
Cl1378    Mn1836   2.480       .  S
C1381      C1382   1.406       .  A
C1381      C1386   1.389       .  A
C1381      C1425   1.463       .  S
C1382      C1383   1.405       .  A
C1382      H1387   1.084       .  S
C1383      C1384   1.407       .  A
C1383      C1631   1.491       .  S
C1384      C1385   1.408       .  A
C1384      H1388   1.083       .  S
C1385      C1386   1.390       .  A
C1385      C1518   1.466       .  S
C1386      H1389   1.084       .  S
C1390      C1391   1.396       .  A
C1390      C1395   1.409       .  A
C1390      C1541   1.469       .  S
C1391      C1392   1.396       .  A
C1391      H1396   1.086       .  S
C1392      C1393   1.411       .  A
C1392      C1448   1.469       .  S
C1393      C1394   1.412       .  A
C1393      H1397   1.084       .  S
C1394      C1395   1.412       .  A
C1394      C1668   1.502       .  S
C1395      H1398   1.084       .  S
C1399      C1400   1.399       .  A
C1399      C1404   1.411       .  A
C1399      C1517   1.475       .  S
C1400      C1401   1.399       .  A
C1400      H1405   1.085       .  S
C1401      C1402   1.410       .  A
C1401      C1437   1.474       .  S
C1402      C1403   1.413       .  A
C1402      H1406   1.084       .  S
C1403      C1404   1.413       .  A
C1403      C1566   1.503       .  S
C1404      H1407   1.084       .  S
C1408      C1409   1.388       .  A
C1408      C1413   1.404       .  A
C1408      C1447   1.461       .  S
C1409      C1410   1.390       .  A
C1409      H1414   1.084       .  S
C1410      C1411   1.406       .  A
C1410      C1529   1.463       .  S
C1411      C1412   1.405       .  A
C1411      H1415   1.084       .  S
C1412      C1413   1.403       .  A
C1412      C1597   1.485       .  S
C1413      H1416   1.084       .  S
N1417      N1418   1.316       .  A
N1417      N1423   1.319       .  A
N1417     Mn1446   2.234       .  S
N1418      C1425   1.357       .  A
N1419      N1421   1.313       .  A
N1419      N1420   1.331       .  A
N1420      C1426   1.359       .  A
N1421      N1422   1.315       .  A
N1422      C1426   1.342       .  A
N1423      N1424   1.316       .  A
N1424      C1425   1.346       .  A
C1426      C1471   1.476       .  S
N1427      N1433   1.320       .  A
N1427      N1428   1.316       .  A
N1428      C1436   1.355       .  A
N1429      N1430   1.330       .  A
N1429      N1431   1.312       .  A
N1429     Mn1435   2.223       .  S
N1430      C1437   1.359       .  A
N1431      N1432   1.315       .  A
N1431     Mn1457   2.157       .  S
N1432      C1437   1.342       .  A
N1433      N1434   1.317       .  A
N1434      C1436   1.347       .  A
Mn1435    Cl1459   2.599       .  S
C1436      C1482   1.462       .  S
N1438      N1439   1.317       .  A
N1438      N1444   1.321       .  A
N1439      C1447   1.357       .  A
N1440      N1442   1.312       .  A
N1440      N1441   1.328       .  A
N1441      C1448   1.357       .  A
N1442      N1443   1.314       .  A
N1442     Mn1446   2.154       .  S
N1443      C1448   1.342       .  A
N1444      N1445   1.315       .  A
N1445      C1447   1.345       .  A
N1449      N1450   1.317       .  A
N1449      N1455   1.320       .  A
N1449     Mn1457   2.234       .  S
N1450      C1460   1.356       .  A
N1451      N1452   1.331       .  A
N1451      N1453   1.313       .  A
N1452      C1461   1.360       .  A
N1453      N1454   1.316       .  A
N1454      C1461   1.343       .  A
N1455      N1456   1.317       .  A
N1455     Mn1458   2.163       .  S
N1456      C1460   1.347       .  A
Mn1457    Cl1459   2.479       .  S
Mn1458    Cl1459   2.599       .  S
C1460      C1466   1.465       .  S
C1461      C1491   1.480       .  S
C1462      C1463   1.408       .  A
C1462      C1467   1.389       .  A
C1462      C1542   1.465       .  S
C1463      C1464   1.406       .  A
C1463      H1468   1.084       .  S
C1464      C1465   1.405       .  A
C1464      C1598   1.489       .  S
C1465      C1466   1.406       .  A
C1465      H1469   1.084       .  S
C1466      C1467   1.391       .  A
C1467      H1470   1.084       .  S
C1471      C1472   1.398       .  A
C1471      C1476   1.413       .  A
C1472      C1473   1.397       .  A
C1472      H1477   1.085       .  S
C1473      C1474   1.411       .  A
C1473      C1506   1.473       .  S
C1474      C1475   1.414       .  A
C1474      H1478   1.084       .  S
C1475      C1476   1.416       .  A
C1475      C1565   1.507       .  S
C1476      H1479   1.083       .  S
C1480      C1481   1.404       .  A
C1480      C1485   1.404       .  A
C1480      C1632   1.486       .  S
C1481      C1482   1.405       .  A
C1481      H1486   1.084       .  S
C1482      C1483   1.391       .  A
C1483      C1484   1.390       .  A
C1483      H1487   1.084       .  S
C1484      C1485   1.406       .  A
C1484      C1507   1.464       .  S
C1485      H1488   1.084       .  S
C1489      C1490   1.416       .  A
C1489      C1494   1.416       .  A
C1489      C1667   1.510       .  S
C1490      C1491   1.412       .  A
C1490      H1495   1.083       .  S
C1491      C1492   1.400       .  A
C1492      C1493   1.400       .  A
C1492      H1496   1.085       .  S
C1493      C1494   1.414       .  A
C1493      C1528   1.478       .  S
C1494      H1497   1.083       .  S
N1498      N1499   1.315       .  A
N1498      N1504   1.313       .  A
N1498     Mn1527   2.161       .  S
N1499      C1506   1.342       .  A
N1500      N1502   1.320       .  A
N1500      N1501   1.316       .  A
N1500     Mn1516   2.162       .  S
N1501      C1507   1.346       .  A
N1502      N1503   1.317       .  A
N1502     Mn1527   2.235       .  S
N1503      C1507   1.357       .  A
N1504      N1505   1.329       .  A
N1504     Mn1516   2.220       .  S
N1505      C1506   1.357       .  A
N1508      N1514   1.312       .  A
N1508      N1509   1.315       .  A
N1508     Mn1538   2.156       .  S
N1509      C1517   1.342       .  A
N1510      N1511   1.317       .  A
N1510      N1512   1.320       .  A
N1510     Mn1516   2.164       .  S
N1511      C1518   1.347       .  A
N1512      N1513   1.317       .  A
N1512     Mn1538   2.238       .  S
N1513      C1518   1.358       .  A
N1514      N1515   1.330       .  A
N1514     Mn1516   2.226       .  S
N1515      C1517   1.359       .  A
Mn1516    Cl1540   2.597       .  S
N1519      N1520   1.315       .  A
N1519      N1525   1.312       .  A
N1519     Mn1527   2.160       .  S
N1520      C1528   1.342       .  A
N1521      N1523   1.320       .  A
N1521      N1522   1.317       .  A
N1521     Mn1539   2.159       .  S
N1522      C1529   1.346       .  A
N1523      N1524   1.316       .  A
N1523     Mn1527   2.235       .  S
N1524      C1529   1.356       .  A
N1525      N1526   1.331       .  A
N1525     Mn1539   2.227       .  S
N1526      C1528   1.360       .  A
Mn1527    Cl1540   2.480       .  S
N1530      N1531   1.314       .  A
N1530      N1536   1.313       .  A
N1530     Mn1538   2.156       .  S
N1531      C1541   1.341       .  A
N1532      N1533   1.316       .  A
N1532      N1534   1.321       .  A
N1532     Mn1539   2.160       .  S
N1533      C1542   1.345       .  A
N1534      N1535   1.318       .  A
N1534     Mn1538   2.240       .  S
N1535      C1542   1.358       .  A
N1536      N1537   1.329       .  A
N1536     Mn1539   2.219       .  S
N1537      C1541   1.357       .  A
Mn1538    Cl1540   2.480       .  S
Mn1539    Cl1540   2.598       .  S
N1543      C1547   1.355       .  A
N1543      H1575   1.032       .  S
N1544      C1551   1.355       .  A
N1544      C1552   1.354       .  A
N1545      C1550   1.362   1_565  A
N1545      C1549   1.361       .  A
N1545      H1576   1.032       .  S
N1546      C1553   1.355       .  A
N1546      C1554   1.354       .  A
C1547      C1555   1.387       .  A
C1547      C1563   1.420       .  A
C1548      C1564   1.422       .  A
C1549      C1557   1.388       .  A
C1549      C1566   1.438       .  A
C1550      C1558   1.388   1_545  A
C1551      C1563   1.419       .  A
C1551      C1559   1.386       .  A
C1552      C1566   1.422       .  A
C1552      C1560   1.389       .  A
C1553      C1561   1.386       .  A
C1553      C1564   1.421       .  A
C1554      C1562   1.389       .  A
C1554      C1565   1.424       .  A
C1555      C1556   1.378       .  A
C1555      H1567   1.082       .  S
C1557      C1558   1.389       .  A
C1557      H1569   1.082       .  S
C1559      C1560   1.367       .  A
C1559      H1571   1.082       .  S
C1560      H1572   1.082       .  S
C1561      C1562   1.369       .  A
C1561      H1573   1.082       .  S
C1562      H1574   1.082       .  S
C1563      C1791   1.490       .  S
C1564      C1726   1.489       .  S
N1577      C1582   1.354       .  A
N1577      H1609   1.031       .  S
N1578      C1585   1.353   1_556  A
N1578      C1586   1.353       .  A
N1579      C1584   1.362       .  A
N1579      H1610   1.031       .  S
N1580      C1587   1.355   1_556  A
N1580      C1588   1.353       .  A
C1581      C1589   1.388       .  A
C1581      C1597   1.420       .  A
C1582      C1598   1.419       .  A
C1582      C1590   1.387       .  A
C1583      C1591   1.388   1_655  A
C1583      C1600   1.441       .  A
C1584      C1599   1.439       .  A
C1584      C1592   1.388       .  A
C1585      C1597   1.419       .  A
C1585      C1593   1.386   1_554  A
C1586      C1600   1.423       .  A
C1586      C1594   1.389       .  A
C1587      C1595   1.385   1_554  A
C1587      C1598   1.418       .  A
C1588      C1596   1.390       .  A
C1588      C1599   1.422       .  A
C1589      H1601   1.082       .  S
C1590      H1602   1.082       .  S
C1591      H1603   1.082   1_455  S
C1592      H1604   1.082       .  S
C1593      C1594   1.368       .  A
C1593      H1605   1.082   1_556  S
C1594      H1606   1.082       .  S
C1595      C1596   1.368       .  A
C1595      H1607   1.082   1_556  S
C1596      H1608   1.082       .  S
C1599      C1710   1.503       .  S
C1600      C1692   1.506       .  S
N1611      C1616   1.353       .  A
N1611      H1643   1.031       .  S
N1612      C1619   1.355       .  A
N1612      C1620   1.352       .  A
N1613      C1618   1.364       .  A
N1613      H1644   1.031       .  S
N1614      C1621   1.354       .  A
N1614      C1622   1.355       .  A
C1615      C1631   1.419       .  A
C1616      C1632   1.421       .  A
C1616      C1624   1.388       .  A
C1617      C1634   1.439       .  A
C1618      C1633   1.439       .  A
C1618      C1626   1.387       .  A
C1619      C1631   1.416       .  A
C1619      C1627   1.384       .  A
C1620      C1634   1.422       .  A
C1620      C1628   1.391       .  A
C1621      C1629   1.387       .  A
C1621      C1632   1.419       .  A
C1622      C1630   1.388       .  A
C1622      C1633   1.422       .  A
C1623      C1624   1.377       .  A
C1624      H1636   1.082       .  S
C1625      C1626   1.389       .  A
C1626      H1638   1.082       .  S
C1627      C1628   1.367       .  A
C1627      H1639   1.082       .  S
C1628      H1640   1.082       .  S
C1629      C1630   1.368       .  A
C1629      H1641   1.082       .  S
C1630      H1642   1.082       .  S
C1633      C1715   1.510       .  S
C1634      C1782   1.502       .  S
N1645      C1649   1.355       .  A
N1645      H1677   1.034       .  S
N1646      C1653   1.355       .  A
N1646      C1654   1.353       .  A
N1647      C1651   1.362       .  A
N1647      H1678   1.029   1_554  S
N1648      C1655   1.353       .  A
N1648      C1656   1.354       .  A
C1649      C1657   1.387       .  A
C1649      C1665   1.419       .  A
C1650      C1666   1.419       .  A
C1651      C1659   1.388       .  A
C1651      C1668   1.440       .  A
C1652      C1667   1.440       .  A
C1652      C1660   1.387       .  A
C1653      C1665   1.416       .  A
C1653      C1661   1.385       .  A
C1654      C1668   1.423   1_556  A
C1654      C1662   1.391       .  A
C1655      C1663   1.387       .  A
C1655      C1666   1.418       .  A
C1656      C1664   1.388       .  A
C1656      C1667   1.421   1_556  A
C1657      C1658   1.377   1_565  A
C1657      H1669   1.082       .  S
C1659      H1671   1.082       .  S
C1660      H1672   1.082       .  S
C1661      C1662   1.367       .  A
C1661      H1673   1.082       .  S
C1662      H1674   1.082       .  S
C1663      C1664   1.367       .  A
C1663      H1675   1.082       .  S
C1664      H1676   1.082       .  S
C1665      C1681   1.489       .  S
C1666      C1697   1.483       .  S
C1679      C1680   1.406       .  A
C1679      C1684   1.388       .  A
C1679      C1741   1.461       .  S
C1680      C1681   1.405       .  A
C1680      H1685   1.084       .  S
C1681      C1682   1.407       .  A
C1682      C1683   1.408       .  A
C1682      H1686   1.083       .  S
C1683      C1684   1.388       .  A
C1683      C1816   1.463       .  S
C1684      H1687   1.084       .  S
C1688      C1689   1.399       .  A
C1688      C1693   1.411       .  A
C1688      C1742   1.476       .  S
C1689      C1690   1.400       .  A
C1689      H1694   1.085       .  S
C1690      C1691   1.412       .  A
C1690      C1804   1.476       .  S
C1691      C1692   1.415       .  A
C1691      H1695   1.083       .  S
C1692      C1693   1.414       .  A
C1693      H1696   1.084       .  S
C1697      C1698   1.403       .  A
C1697      C1702   1.404       .  A
C1698      C1699   1.405       .  A
C1698      H1703   1.084       .  S
C1699      C1700   1.390       .  A
C1699      C1752   1.460       .  S
C1700      C1701   1.390       .  A
C1700      H1704   1.084       .  S
C1701      C1702   1.404       .  A
C1701      C1805   1.462       .  S
C1702      H1705   1.084       .  S
C1706      C1707   1.397       .  A
C1706      C1711   1.409       .  A
C1706      C1815   1.473       .  S
C1707      C1708   1.399       .  A
C1707      H1712   1.085       .  S
C1708      C1709   1.412       .  A
C1708      C1753   1.473       .  S
C1709      C1710   1.413       .  A
C1709      H1713   1.084       .  S
C1710      C1711   1.413       .  A
C1711      H1714   1.084       .  S
C1715      C1716   1.415       .  A
C1715      C1720   1.416       .  A
C1716      C1717   1.411       .  A
C1716      H1721   1.083       .  S
C1717      C1718   1.398       .  A
C1717      C1777   1.476       .  S
C1718      C1719   1.399       .  A
C1718      H1722   1.086       .  S
C1719      C1720   1.414       .  A
C1719      C1826   1.477       .  S
C1720      H1723   1.083       .  S
C1724      C1725   1.405       .  A
C1724      C1729   1.390       .  A
C1724      C1763   1.463       .  S
C1725      C1726   1.404       .  A
C1725      H1730   1.084       .  S
C1726      C1727   1.406       .  A
C1727      C1728   1.408       .  A
C1727      H1731   1.083       .  S
C1728      C1729   1.391       .  A
C1728      C1827   1.465       .  S
C1729      H1732   1.084       .  S
N1733      N1734   1.316       .  A
N1733      N1739   1.319       .  A
N1733     Mn1762   2.233       .  S
N1734      C1741   1.357       .  A
N1735      N1737   1.312       .  A
N1735      N1736   1.331       .  A
N1735     Mn1751   2.229       .  S
N1736      C1742   1.360       .  A
N1737      N1738   1.315       .  A
N1737     Mn1762   2.154       .  S
N1738      C1742   1.341       .  A
N1739      N1740   1.316       .  A
N1739     Mn1751   2.156       .  S
N1740      C1741   1.345       .  A
N1743      N1749   1.320       .  A
N1743      N1744   1.316       .  A
N1743     Mn1773   2.229       .  S
N1744      C1752   1.356       .  A
N1745      N1746   1.330       .  A
N1745      N1747   1.313       .  A
N1745     Mn1751   2.222       .  S
N1746      C1753   1.358       .  A
N1747      N1748   1.314       .  A
N1747     Mn1773   2.157       .  S
N1748      C1753   1.342       .  A
N1749      N1750   1.315       .  A
N1749     Mn1751   2.160       .  S
N1750      C1752   1.346       .  A
Mn1751    Cl1775   2.595       .  S
N1754      N1755   1.317       .  A
N1754      N1760   1.320       .  A
N1754     Mn1762   2.233       .  S
N1755      C1763   1.356       .  A
N1756      N1758   1.312       .  A
N1756      N1757   1.330       .  A
N1756     Mn1774   2.221       .  S
N1757      C1764   1.358       .  A
N1758      N1759   1.314       .  A
N1758     Mn1762   2.153       .  S
N1759      C1764   1.341       .  A
N1760      N1761   1.316       .  A
N1760     Mn1774   2.163       .  S
N1761      C1763   1.346       .  A
Mn1762    Cl1775   2.480       .  S
C1764      C1780   1.471       .  S
N1765      N1766   1.316       .  A
N1765      N1771   1.320       .  A
N1765     Mn1773   2.232       .  S
N1766      C1776   1.357       .  A
N1767      N1768   1.330       .  A
N1767      N1769   1.312       .  A
N1767     Mn1774   2.227       .  S
N1768      C1777   1.359       .  A
N1769      N1770   1.315       .  A
N1769     Mn1773   2.158       .  S
N1770      C1777   1.342       .  A
N1771      N1772   1.317       .  A
N1771     Mn1774   2.162       .  S
N1772      C1776   1.346       .  A
Mn1773    Cl1775   2.481       .  S
Mn1774    Cl1775   2.595       .  S
C1776      C1789   1.464       .  S
C1778      C1779   1.396       .  A
C1778      C1783   1.408       .  A
C1778      C1839   1.470       .  S
C1779      C1780   1.398       .  A
C1779      H1784   1.085       .  S
C1780      C1781   1.412       .  A
C1781      C1782   1.414       .  A
C1781      H1785   1.083       .  S
C1782      C1783   1.412       .  A
C1783      H1786   1.084       .  S
C1787      C1788   1.388       .  A
C1787      C1792   1.406       .  A
C1787      C1840   1.464       .  S
C1788      C1789   1.390       .  A
C1788      H1793   1.084       .  S
C1789      C1790   1.408       .  A
C1790      C1791   1.407       .  A
C1790      H1794   1.083       .  S
C1791      C1792   1.406       .  A
C1792      H1795   1.084       .  S
N1796      N1797   1.315       .  A
N1796      N1802   1.313       .  A
N1797      C1804   1.341       .  A
N1798      N1800   1.320       .  A
N1798      N1799   1.316       .  A
N1798     Mn1814   2.161       .  S
N1799      C1805   1.347       .  A
N1800      N1801   1.316       .  A
N1800     Mn1825   2.233       .  S
N1801      C1805   1.356       .  A
N1802      N1803   1.331       .  A
N1803      C1804   1.360       .  A
N1806      N1812   1.312       .  A
N1806      N1807   1.315       .  A
N1806     Mn1836   2.157       .  S
N1807      C1815   1.342       .  A
N1808      N1809   1.316       .  A
N1808      N1810   1.319       .  A
N1809      C1816   1.345       .  A
N1810      N1811   1.316       .  A
N1811      C1816   1.357       .  A
N1812      N1813   1.330       .  A
N1813      C1815   1.358       .  A
Mn1814    Cl1838   2.596       .  S
N1817      N1818   1.315       .  A
N1817      N1823   1.312       .  A
N1817     Mn1825   2.156       .  S
N1818      C1826   1.342       .  A
N1819      N1821   1.319       .  A
N1819      N1820   1.316       .  A
N1820      C1827   1.346       .  A
N1821      N1822   1.317       .  A
N1822      C1827   1.357       .  A
N1823      N1824   1.330       .  A
N1823     Mn1837   2.226       .  S
N1824      C1826   1.359       .  A
Mn1825    Cl1838   2.479       .  S
N1828      N1829   1.315       .  A
N1828      N1834   1.313       .  A
N1829      C1839   1.342       .  A
N1830      N1831   1.316       .  A
N1830      N1832   1.320       .  A
N1831      C1840   1.346       .  A
N1832      N1833   1.317       .  A
N1832     Mn1836   2.237       .  S
N1833      C1840   1.357       .  A
N1834      N1835   1.329       .  A
N1835      C1839   1.357       .  A
Mn1837    Cl1838   2.595       .  S
