geometry optimzed in LAMMPS
_audit_creation_date              2020-11-30 
_audit_creation_method            'lammps2cif' 
_symmetry_space_group_name_H-M    'P1' 
_symmetry_Int_Tables_number       1 
_symmetry_cell_setting            triclinic 
loop_ 
_symmetry_equiv_pos_as_xyz 
  x,y,z 
_cell_length_a                    30.815953832269873 
_cell_length_b                    31.624849291321915 
_cell_length_c                    28.85112330259006 
_cell_angle_alpha                 89.34308742869041 
_cell_angle_beta                  89.49487285889519 
_cell_angle_gamma                 90.05320720554491 
loop_ 
_atom_site_label 
_atom_site_type_symbol 
_atom_site_fract_x 
_atom_site_fract_y 
_atom_site_fract_z 
_atom_site_charge 
C1          C  0.25732847  0.24362469  0.74438261    -0.02160
O2          O  0.13174682  0.06848931  0.49714335    -0.74960
O3          O  0.18657404  0.11707484  0.50104010    -0.53870
C4          C  0.14617027  0.10660860  0.49916208     0.78770
O5          O  0.25593860  0.42281690  0.62497287    -0.59560
O6          O  0.24904083  0.37454204  0.56713002    -0.52590
C7          C  0.25237196  0.38475391  0.60998973     0.70780
O8          O  0.25414825  0.06603612  0.62591636    -0.74120
O9          O  0.25866060  0.11597814  0.56821814    -0.54680
C10         C  0.25692218  0.10456597  0.61109536     0.76790
O11         O  0.12934854  0.42643905  0.49978048    -0.59260
O12         O  0.18328433  0.37732112  0.49284735    -0.52380
C13         C  0.14309678  0.38818312  0.49586419     0.73380
Zr14       Zr  0.16158597  0.49713240  0.49875874     2.54710
O15         O  0.10887890  0.49834839  0.56205830    -0.79830
O16         O  0.10635808  0.49657433  0.43890323    -0.93250
Zr17       Zr  0.25419950  0.49485102  0.59353276     2.64680
O18         O  0.19713842  0.99431146  0.65259845    -0.98200
O19         O  0.31130443  0.49430712  0.65133576    -0.80260
O20         O  0.20785053  0.03713326  0.54692569    -0.83620
O21         O  0.20673853  0.45506422  0.54660952    -2.18330
O22         O  0.24816703  0.42889800  0.36477988    -0.67010
O23         O  0.25328779  0.37868353  0.42198572    -0.51570
C24         C  0.25095039  0.39051792  0.37919541     0.71760
O25         O  0.37655673  0.06523778  0.49400009    -0.59920
O26         O  0.32304618  0.11530516  0.49232801    -0.51890
C27         C  0.36313858  0.10374549  0.49270294     0.73560
O28         O  0.37419999  0.42330468  0.49024486    -0.71310
O29         O  0.31896313  0.37525344  0.49586194    -0.49990
C30         C  0.35945168  0.38520365  0.49268595     0.74950
O31         O  0.25128695  0.06828230  0.36588330    -0.66640
O32         O  0.25173822  0.11633035  0.42414347    -0.53840
C33         C  0.25083238  0.10623900  0.38104602     0.73330
Zr34       Zr  0.25145955  0.49795663  0.39946995     2.77540
O35         O  0.30901390  0.99882480  0.34096081    -0.97390
O36         O  0.19340066  0.50014160  0.34283853    -0.78210
Zr37       Zr  0.34424286  0.49478802  0.49426526     2.70070
O38         O  0.39997251  0.49569935  0.43396789    -0.79460
O39         O  0.39633840  0.49247202  0.55719831    -0.98540
Zr40       Zr  0.25426683  0.07729446  0.49669916     2.21500
Zr41       Zr  0.25167647  0.41525672  0.49552430     2.11130
O42         O  0.29795075  0.45565990  0.44555406    -2.47230
O43         O  0.29942372  0.03741812  0.44621659    -0.79250
O44         O  0.20517355  0.45650488  0.44783578    -0.71450
O45         O  0.30050391  0.03572019  0.54476571    -2.32400
O46         O  0.20649186  0.03845537  0.44864385    -2.28610
O47         O  0.29915265  0.45367525  0.54432586    -0.73210
H48         H  0.18896059  0.43668895  0.56585716     0.78790
H49         H  0.31884947  0.05344711  0.56334288     0.79880
H50         H  0.31520445  0.43763182  0.42587985     0.82100
H51         H  0.18870460  0.05709754  0.43010536     0.79710
H52         H  0.33399643  0.01298603  0.63846173     0.42740
H53         H  0.38769028  0.46751426  0.57616368     0.41710
H54         H  0.38542688  0.00779489  0.40663122     0.41390
H55         H  0.32550012  0.47251731  0.34643971     0.39330
H56         H  0.17014637  0.48228535  0.35665717     0.42460
H57         H  0.11402725  0.02061842  0.41789128     0.37240
H58         H  0.12314467  0.01462187  0.58651939     0.43360
H59         H  0.17992584  0.46877690  0.64646681     0.39770
H60         H  0.29363433  0.49393451  0.31129681     0.44690
H61         H  0.07942466  0.50558874  0.45492262     0.43420
H62         H  0.21272677  0.48756635  0.68195222     0.43550
H63         H  0.42401600  0.48411206  0.54223154     0.43910
C64         C  0.48091376  0.24472206  0.49189102     0.00900
C65         C  0.02524911  0.24597933  0.49530064     0.00890
C66         C  0.25490001  0.24968155  0.25187318    -0.02160
C67         C  0.23327914  0.49544559  0.99763050     0.00900
C68         C  0.27764114  0.49645378  0.00010956     0.00890
O69         O  0.07700388  0.24652296  0.86864845    -0.74960
O70         O  0.12861613  0.24216180  0.92490539    -0.53870
C71         C  0.11649841  0.24396090  0.88232678     0.78770
O72         O  0.43445047  0.36583740  0.00398133    -0.59560
O73         O  0.38195678  0.31493105  0.99931898    -0.52590
C74         C  0.39458668  0.35368254  0.00221068     0.70780
O75         O  0.08038082  0.36296455  0.99300006    -0.74120
O76         O  0.13132154  0.31060306  0.99807351    -0.54680
C77         C  0.11986444  0.34976062  0.99473070     0.76790
O78         O  0.43243608  0.24305429  0.87116424    -0.59260
O79         O  0.38107578  0.24821364  0.92843305    -0.52380
C80         C  0.39296684  0.24534379  0.88565331     0.73380
Zr81       Zr  0.00485301  0.24603363  0.90310577     2.54710
O82         O  0.00323552  0.30314839  0.84587910    -0.79830
O83         O  0.50441785  0.19087007  0.84487265    -0.93250
Zr84       Zr  0.00685789  0.33463294  0.99817582     2.64680
O85         O  0.00525048  0.38663102  0.93528336    -0.98200
O86         O  0.01089581  0.38854186  0.05758633    -0.80260
O87         O  0.04853756  0.29014036  0.94938709    -0.83620
O88         O  0.46327684  0.29174110  0.95041262    -2.18330
O89         O  0.43034497  0.12979026  0.99707466    -0.67010
O90         O  0.37908559  0.18164843  0.00331274    -0.51570
C91         C  0.39078789  0.14264125  0.99962728     0.71760
O92         O  0.07710468  0.24196470  0.12923979    -0.59920
O93         O  0.12827048  0.24144659  0.07170937    -0.51890
C94         C  0.11649553  0.24076937  0.11471645     0.73560
O95         O  0.43529900  0.24764081  0.13134118    -0.71310
O96         O  0.38335964  0.25192558  0.07545815    -0.49990
C97         C  0.39592077  0.25064361  0.11796007     0.74950
O98         O  0.07611884  0.12674886  0.00402159    -0.66640
O99         O  0.12888111  0.17736625  0.99768886    -0.53840
C100        C  0.11606542  0.13863223  0.00135776     0.73330
Zr101      Zr  0.00376808  0.15777024  0.00090206     2.77540
O102        O  0.00036569  0.10493671  0.06292870    -0.97390
O103        O  0.00574660  0.10477632  0.94040208    -0.78210
Zr104      Zr  0.00600964  0.24626160  0.09570190     2.70070
O105        O  0.00349256  0.19162624  0.15576783    -0.79460
O106        O  0.00977531  0.30433782  0.15020728    -0.98540
Zr107      Zr  0.08985466  0.24452826  0.99842818     2.21500
Zr108      Zr  0.42072708  0.24767715  0.00096733     2.11130
O109        O  0.46217675  0.20196773  0.04989004    -2.47230
O110        O  0.04744474  0.20045061  0.04863290    -0.79250
O111        O  0.46179377  0.20210751  0.95208757    -0.71450
O112        O  0.04903167  0.29047349  0.04717763    -2.32400
O113        O  0.04668000  0.20040080  0.95055155    -2.28610
O114        O  0.46388549  0.29182822  0.04853618    -0.73210
H115        H  0.44494676  0.30932826  0.93125306     0.78790
H116        H  0.06802415  0.30743722  0.06587596     0.79880
H117        H  0.44343720  0.18494341  0.06959117     0.82100
H118        H  0.06467595  0.18252350  0.93146040     0.79710
H119        H  0.02958302  0.37612312  0.08191752     0.42740
H120        H  0.48454620  0.32243077  0.14263596     0.41710
H121        H  0.01515906  0.16610793  0.14050759     0.41390
H122        H  0.47289623  0.11075212  0.07971786     0.39330
H123        H  0.48829967  0.11716190  0.91499745     0.42460
H124        H  0.02987068  0.17295216  0.85204701     0.37240
H125        H  0.02357207  0.32457795  0.85788512     0.43360
H126        H  0.47738278  0.38170902  0.91939869     0.39770
H127        H  0.99506203  0.07792835  0.04689260     0.44690
H128        H  0.51231231  0.20561215  0.81552746     0.43420
H129        H  0.00132904  0.41406916  0.95096370     0.43550
H130        H  0.00232420  0.29134260  0.18063852     0.43910
C131        C  0.29712721  0.06899118  0.03124561    -0.20970
C132        C  0.30314465  0.03680139  0.99843588    -0.09020
C133        C  0.33571620  0.04194041  0.96435482     0.29840
C134        C  0.36258135  0.07742065  0.96414861    -0.20980
C135        C  0.35739254  0.10910293  0.99733988    -0.09030
C136        C  0.32374747  0.10519136  0.03042242     0.29850
F137        F  0.31837496  0.13494113  0.06350538    -0.19550
H138        H  0.27263496  0.06554936  0.05816641     0.18210
H139        H  0.38820595  0.07984931  0.93828048     0.18220
F140        F  0.34188153  0.01235166  0.93124008    -0.19540
C141        C  0.21128280  0.42319528  0.02930170    -0.20970
C142        C  0.20865020  0.45467112  0.99450735    -0.09020
C143        C  0.17925626  0.44907909  0.95806355     0.29840
C144        C  0.15191567  0.41381684  0.95746774    -0.20980
C145        C  0.15373828  0.38291439  0.99266634    -0.09030
C146        C  0.18432754  0.38733587  0.02819648     0.29850
F147        F  0.18600859  0.35858814  0.06342848    -0.19550
H148        H  0.23301577  0.42718383  0.05821278     0.18210
H149        H  0.12846584  0.41105513  0.92989615     0.18220
F150        F  0.17627408  0.47837549  0.92348262    -0.19540
C151        C  0.30539795  0.42890179  0.96498346    -0.20970
C152        C  0.30386983  0.45679974  0.00248857    -0.09020
C153        C  0.33068524  0.44908524  0.04085672     0.29840
C154        C  0.35917491  0.41463807  0.04117641    -0.20980
C155        C  0.36129583  0.38722746  0.00335669    -0.09030
C156        C  0.33408232  0.39453286  0.96527621     0.29850
F157        F  0.33755601  0.37034176  0.92702672    -0.19550
H158        H  0.28577323  0.43490198  0.93465252     0.18210
H159        H  0.38016542  0.40970397  0.07067189     0.18220
F160        F  0.32969398  0.47532802  0.07774882    -0.19540
C161        C  0.17321574  0.03687110  0.03337778    -0.20970
C162        C  0.20612866  0.03466291  0.99953392    -0.09020
C163        C  0.21031195  0.06808217  0.96698639     0.29840
C164        C  0.18244510  0.10315766  0.96915683    -0.20980
C165        C  0.14898354  0.10462089  0.00250837    -0.09030
C166        C  0.14472613  0.07114351  0.03468555     0.29850
F167        F  0.11275590  0.07148728  0.06736792    -0.19550
H168        H  0.16912346  0.01145076  0.05853771     0.18210
H169        H  0.18561403  0.12817653  0.94338953     0.18220
F170        F  0.23980797  0.06595806  0.93190487    -0.19540
C171        C  0.29874577  0.28395312  0.18737632    -0.20970
C172        C  0.29757294  0.25297007  0.22328379    -0.09020
C173        C  0.33422553  0.22646219  0.22830580     0.29840
C174        C  0.36639857  0.22631216  0.19393001    -0.20980
C175        C  0.36315240  0.25279181  0.15475931    -0.09030
C176        C  0.33009037  0.28282617  0.15255962     0.29850
F177        F  0.32795829  0.31091250  0.11669072    -0.19550
H178        H  0.27269051  0.30671450  0.18393193     0.18210
H179        H  0.39351886  0.20475856  0.19742149     0.18220
F180        F  0.34019965  0.20155050  0.26623689    -0.19540
C181        C  0.14080066  0.25191758  0.19612153    -0.20970
C182        C  0.15030945  0.23924460  0.15053406    -0.09020
C183        C  0.19203025  0.22468642  0.14010372     0.29840
C184        C  0.22423073  0.22632163  0.17335946    -0.20980
C185        C  0.21681844  0.24483103  0.21735671    -0.09030
C186        C  0.17330000  0.25357558  0.22954544     0.29850
F187        F  0.16198477  0.26458691  0.27327412    -0.19550
H188        H  0.10820855  0.26126576  0.20589577     0.18210
H189        H  0.25547452  0.21335450  0.16381629     0.18220
F190        F  0.20179711  0.20827004  0.09799244    -0.19540
C191        C  0.28432084  0.32587340  0.34876321    -0.20970
C192        C  0.25346553  0.35775695  0.34382765    -0.09020
C193        C  0.22707741  0.35875812  0.30433671     0.29840
C194        C  0.22877921  0.32563786  0.27260782    -0.20980
C195        C  0.25630932  0.29072257  0.28036388    -0.09030
C196        C  0.28688818  0.29357443  0.31674053     0.29850
F197        F  0.31695657  0.26295167  0.32391284    -0.19630
H198        H  0.30645373  0.32583385  0.37776321     0.18210
H199        H  0.20805566  0.32732677  0.24265284     0.18220
F200        F  0.19855480  0.39084109  0.29737647    -0.19540
C201        C  0.25977170  0.17001191  0.26916087    -0.20970
C202        C  0.25010007  0.21100569  0.28494507    -0.09020
C203        C  0.23200714  0.21430156  0.33032811     0.29840
C204        C  0.23258806  0.18009899  0.36077283    -0.20980
C205        C  0.24834975  0.14090182  0.34666460    -0.09030
C206        C  0.26021797  0.13549619  0.29986115     0.29850
F207        F  0.27373488  0.09742609  0.28399613    -0.19550
H208        H  0.26957163  0.16510020  0.23351356     0.18210
H209        H  0.22011493  0.18436605  0.39564525     0.18220
F210        F  0.21269214  0.25004156  0.34587591    -0.19540
C211        C  0.42822307  0.35181642  0.46334623    -0.20970
C212        C  0.39137535  0.35027299  0.49248022    -0.09020
C213        C  0.38512235  0.31488229  0.52150507     0.29840
C214        C  0.41551634  0.28227661  0.52210547    -0.20980
C215        C  0.45218483  0.28304353  0.49258683    -0.09030
C216        C  0.45781318  0.31804567  0.46238577     0.29850
F217        F  0.49049712  0.31894124  0.43059855    -0.19550
H218        H  0.43321862  0.37852780  0.44006662     0.18210
H219        H  0.40991013  0.25588270  0.54560755     0.18220
F220        F  0.34989872  0.31204692  0.54999787    -0.19540
C221        C  0.05273116  0.17705140  0.46308665    -0.20970
C222        C  0.05196148  0.20666395  0.49900843    -0.09020
C223        C  0.08182047  0.20236451  0.53546583     0.29840
C224        C  0.11261344  0.16993023  0.53518867    -0.20980
C225        C  0.11359995  0.14069152  0.49911955    -0.09030
C226        C  0.08296751  0.14398029  0.46339004     0.29850
F227        F  0.08374582  0.11642902  0.42765585    -0.19550
H228        H  0.03106744  0.18050216  0.43394816     0.18210
H229        H  0.13566438  0.16753179  0.56323934     0.18220
F230        F  0.08176151  0.23025166  0.57088832    -0.19540
C231        C  0.08530133  0.28855423  0.46068253    -0.20970
C232        C  0.05124644  0.28583937  0.49334405    -0.09020
C233        C  0.04652124  0.31820374  0.52610038     0.29840
C234        C  0.07555433  0.35247155  0.52583530    -0.20980
C235        C  0.11045994  0.35405573  0.49409930    -0.09030
C236        C  0.11482123  0.32194485  0.46124526     0.29850
F237        F  0.14769017  0.32287402  0.42957609    -0.19550
H238        H  0.08971856  0.26392531  0.43527561     0.18210
H239        H  0.07194634  0.37681571  0.55168705     0.18220
F240        F  0.01546772  0.31562881  0.55964557    -0.19540
C241        C  0.40420078  0.16017653  0.45067698    -0.20970
C242        C  0.39644745  0.13708367  0.49164353    -0.09020
C243        C  0.42040799  0.14633245  0.53150107     0.29840
C244        C  0.45067000  0.17944353  0.53068469    -0.20980
C245        C  0.45712190  0.20373588  0.49016004    -0.09030
C246        C  0.43438389  0.19323306  0.44985130     0.29850
F247        F  0.44047823  0.21594947  0.41011820    -0.19550
H248        H  0.38630129  0.15303204  0.41956960     0.18210
H249        H  0.46723969  0.18773964  0.56226747     0.18220
F250        F  0.41280297  0.12483349  0.57175087    -0.19540
C251        C  0.29451657  0.27391026  0.81528472    -0.20970
C252        C  0.29673622  0.24509354  0.77794220    -0.09020
C253        C  0.33209214  0.21615836  0.77776271     0.29840
C254        C  0.36328487  0.21718477  0.81255629    -0.20980
C255        C  0.35933229  0.24485860  0.84981864    -0.09030
C256        C  0.32440358  0.27292195  0.85120848     0.29850
F257        F  0.31929128  0.29973597  0.88708391    -0.19550
H258        H  0.26825187  0.29657853  0.81735574     0.18210
H259        H  0.39007779  0.19504195  0.81120711     0.18220
F260        F  0.33686526  0.18555771  0.74576952    -0.19540
C261        C  0.18374808  0.21317989  0.84910741    -0.20970
C262        C  0.15022509  0.24270939  0.84611838    -0.09020
C263        C  0.14884336  0.27058503  0.80810241     0.29840
C264        C  0.18215547  0.27073691  0.77503023    -0.20980
C265        C  0.21664785  0.24121756  0.77723851    -0.09030
C266        C  0.21590107  0.21162505  0.81486018     0.29850
F267        F  0.24741827  0.18192214  0.81948636    -0.19550
H268        H  0.18481298  0.19089643  0.87788697     0.18210
H269        H  0.18060685  0.29517602  0.74883882     0.18220
F270        F  0.11619661  0.29916607  0.80401925    -0.19540
C271        C  0.28371907  0.35051666  0.67973724    -0.20970
C272        C  0.25265354  0.35035083  0.64479253    -0.09020
C273        C  0.22290176  0.31695451  0.64303136     0.29840
C274        C  0.22415730  0.28446253  0.67620692    -0.20980
C275        C  0.25564329  0.28357095  0.71181516    -0.09030
C276        C  0.28631328  0.31737197  0.71199906     0.29850
F277        F  0.32061845  0.31845870  0.74092797    -0.19550
H278        H  0.30753391  0.37572116  0.68084269     0.18210
H279        H  0.20058293  0.25916773  0.67377913     0.18220
F280        F  0.19219209  0.31600024  0.60959818    -0.19540
C281        C  0.22941636  0.17050523  0.71551295    -0.20970
C282        C  0.25892016  0.20480522  0.71141699    -0.09020
C283        C  0.28794703  0.20465014  0.67279867     0.29840
C284        C  0.28694374  0.17218920  0.64037625    -0.20980
C285        C  0.25812816  0.13824696  0.64587017    -0.09030
C286        C  0.22986074  0.13729828  0.68408609     0.29850
F287        F  0.20110071  0.10508308  0.68997799    -0.19550
H288        H  0.20497658  0.16874674  0.74234995     0.18210
H289        H  0.30921969  0.17330710  0.61111137     0.18220
F290        F  0.31756846  0.23603077  0.66634969    -0.19540
C291        C  0.25737028  0.74362357  0.74437155    -0.02160
O292        O  0.13175106  0.56849194  0.49723096    -0.74960
O293        O  0.18658059  0.61708060  0.50106067    -0.53870
C294        C  0.14617558  0.60661260  0.49921549     0.78770
O295        O  0.25589153  0.92282198  0.62497700    -0.59560
O296        O  0.24902630  0.87454543  0.56713058    -0.52590
C297        C  0.25234737  0.88475792  0.60999082     0.70780
O298        O  0.25422334  0.56603019  0.62591323    -0.74120
O299        O  0.25869376  0.61597454  0.56821385    -0.54680
C300        C  0.25697693  0.60456086  0.61109166     0.76790
O301        O  0.12934933  0.92643607  0.49970040    -0.59260
O302        O  0.18328965  0.87731650  0.49281565    -0.52380
C303        C  0.14310061  0.88817906  0.49580986     0.73380
Zr304      Zr  0.16158254  0.99712965  0.49866363     2.54710
O305        O  0.10877622  0.99834591  0.56186879    -0.79830
O306        O  0.10645074  0.99656993  0.43870714    -0.93250
Zr307      Zr  0.25409620  0.99485457  0.59353878     2.64680
O308        O  0.19740546  0.49432130  0.65277133    -0.98200
O309        O  0.31103058  0.99434274  0.65153047    -0.80260
O310        O  0.20790498  0.53713006  0.54697085    -0.83620
O311        O  0.20669126  0.95506028  0.54656256    -2.18330
O312        O  0.24827267  0.92890202  0.36477876    -0.67010
O313        O  0.25333515  0.87868278  0.42198613    -0.51570
C314        C  0.25103096  0.89052028  0.37919440     0.71760
O315        O  0.37655996  0.56523714  0.49389332    -0.59920
O316        O  0.32304898  0.61530637  0.49229518    -0.51890
C317        C  0.36314170  0.60374562  0.49263283     0.73560
O318        O  0.37420316  0.92330685  0.49033449    -0.71310
O319        O  0.31896639  0.87525145  0.49589900    -0.49990
C320        C  0.35945572  0.88520453  0.49274891     0.74950
O321        O  0.25122118  0.56828005  0.36587774    -0.66640
O322        O  0.25171936  0.61632942  0.42413616    -0.53840
C323        C  0.25079382  0.60623749  0.38103943     0.73330
Zr324      Zr  0.25155069  0.99795867  0.39947243     2.77540
O325        O  0.30883371  0.49880789  0.34085851    -0.97390
O326        O  0.19358516  0.00012781  0.34273193    -0.78210
Zr327      Zr  0.34424193  0.99478773  0.49436881     2.70070
O328        O  0.40005970  0.99570608  0.43416486    -0.79460
O329        O  0.39625697  0.99245456  0.55737733    -0.98540
Zr330      Zr  0.25426974  0.57729558  0.49669284     2.21500
Zr331      Zr  0.25167993  0.91525622  0.49552479     2.11130
O332        O  0.29799826  0.95566077  0.44560401    -2.47230
O333        O  0.29937755  0.53741681  0.44616290    -0.79250
O334        O  0.20521965  0.95650385  0.44778669    -0.71450
O335        O  0.30055255  0.53572228  0.54470778    -2.32400
O336        O  0.20644965  0.53845673  0.44868750    -2.28610
O337        O  0.29910291  0.95367976  0.54438208    -0.73210
H338        H  0.18890143  0.93668124  0.56579307     0.78790
H339        H  0.31891257  0.55345228  0.56326508     0.79880
H340        H  0.31526788  0.93763339  0.42594486     0.82100
H341        H  0.18864982  0.55709926  0.43016325     0.79710
H342        H  0.33397204  0.51342846  0.63850966     0.42740
H343        H  0.38765677  0.96742560  0.57625319     0.41710
H344        H  0.38531509  0.50783677  0.40647453     0.41390
H345        H  0.32564683  0.97251278  0.34653490     0.39330
H346        H  0.17029025  0.98231371  0.35653723     0.42460
H347        H  0.11392501  0.52060002  0.41805149     0.37240
H348        H  0.12332089  0.51455126  0.58671781     0.43360
H349        H  0.17976688  0.96868867  0.64633305     0.39770
H350        H  0.29385439  0.99399868  0.31136578     0.44690
H351        H  0.07948466  0.00554892  0.45468812     0.43420
H352        H  0.21240224  0.98769575  0.68185058     0.43550
H353        H  0.42397829  0.98420821  0.54242529     0.43910
C354        C  0.48091569  0.74472248  0.49188945     0.00900
C355        C  0.02525111  0.74597832  0.49530040     0.00890
C356        C  0.25493750  0.74968467  0.25187117    -0.02160
C357        C  0.23327518  0.99544620  0.99766176     0.00900
C358        C  0.27763604  0.99645395  0.00015052     0.00890
O359        O  0.07704546  0.74653689  0.86864550    -0.74960
O360        O  0.12865465  0.74217264  0.92490442    -0.53870
C361        C  0.11653979  0.74397108  0.88232475     0.78770
O362        O  0.43446680  0.86584224  0.00400986    -0.59560
O363        O  0.38197770  0.81493352  0.99932710    -0.52590
C364        C  0.39460329  0.85368602  0.00223435     0.70780
O365        O  0.08039874  0.86297211  0.99300744    -0.74120
O366        O  0.13134177  0.81061112  0.99807221    -0.54680
C367        C  0.11988184  0.84976720  0.99473538     0.76790
O368        O  0.43247759  0.74307047  0.87115092    -0.59260
O369        O  0.38111252  0.74822024  0.92841676    -0.52380
C370        C  0.39300756  0.74535493  0.88563760     0.73380
Zr371      Zr  0.00488999  0.74606158  0.90309743     2.54710
O372        O  0.00327870  0.80321885  0.84592113    -0.79830
O373        O  0.50445781  0.69094362  0.84481265    -0.93250
Zr374      Zr  0.00687685  0.83464208  0.99818334     2.64680
O375        O  0.00525609  0.88664680  0.93529780    -0.98200
O376        O  0.01091912  0.88854671  0.05759848    -0.80260
O377        O  0.04856785  0.79016107  0.94939053    -0.83620
O378        O  0.46330183  0.79175397  0.95041139    -2.18330
O379        O  0.43037964  0.62978630  0.99705330    -0.67010
O380        O  0.37911844  0.68164221  0.00329643    -0.51570
C381        C  0.39082147  0.64263465  0.99960906     0.71760
O382        O  0.07713711  0.74198168  0.12923452    -0.59920
O383        O  0.12830149  0.74146610  0.07170275    -0.51890
C384        C  0.11652817  0.74079202  0.11471038     0.73560
O385        O  0.43533096  0.74761637  0.13133508    -0.71310
O386        O  0.38339164  0.75191279  0.07545225    -0.49990
C387        C  0.39595310  0.75062197  0.11795404     0.74950
O388        O  0.07615167  0.62676216  0.00400296    -0.66640
O389        O  0.12891380  0.67738049  0.99768252    -0.53840
C390        C  0.11609797  0.63864652  0.00134581     0.73330
Zr391      Zr  0.00380019  0.65777865  0.00087682     2.77540
O392        O  0.00040485  0.60492350  0.06288149    -0.97390
O393        O  0.00578799  0.60481040  0.94035020    -0.78210
Zr394      Zr  0.00604018  0.74625984  0.09569390     2.70070
O395        O  0.00354463  0.69164075  0.15577806    -0.79460
O396        O  0.00978778  0.80435527  0.15017658    -0.98540
Zr397      Zr  0.08988268  0.74453814  0.99842236     2.21500
Zr398      Zr  0.42075436  0.74767856  0.00095740     2.11130
O399        O  0.46220987  0.70196806  0.04987379    -2.47230
O400        O  0.04747437  0.70045238  0.04861930    -0.79250
O401        O  0.46182926  0.70212361  0.95206830    -0.71450
O402        O  0.04905719  0.79047854  0.04717530    -2.32400
O403        O  0.04671227  0.70041778  0.95053523    -2.28610
O404        O  0.46390888  0.79182565  0.04853465    -0.73210
H405        H  0.44497025  0.80934245  0.93125494     0.78790
H406        H  0.06804861  0.80744159  0.06587552     0.79880
H407        H  0.44347232  0.68493925  0.06957242     0.82100
H408        H  0.06470889  0.68254326  0.93144160     0.79710
H409        H  0.02966840  0.87615537  0.08189107     0.42740
H410        H  0.48455617  0.82244116  0.14259455     0.41710
H411        H  0.01514169  0.66610168  0.14050029     0.41390
H412        H  0.47294602  0.61074421  0.07968828     0.39330
H413        H  0.48836434  0.61721662  0.91493898     0.42460
H414        H  0.02989578  0.67300614  0.85198894     0.37240
H415        H  0.02366421  0.82461132  0.85791259     0.43360
H416        H  0.47737949  0.88173444  0.91942705     0.39770
H417        H  0.99508170  0.57792333  0.04683646     0.44690
H418        H  0.51237816  0.70570306  0.81548553     0.43420
H419        H  0.00135013  0.91408442  0.95098343     0.43550
H420        H  0.00233548  0.79136890  0.18061191     0.43910
C421        C  0.29714946  0.56898545  0.03121820    -0.20970
C422        C  0.30315788  0.53680004  0.99840090    -0.09020
C423        C  0.33573394  0.54193894  0.96432354     0.29840
C424        C  0.36260799  0.57741422  0.96412605    -0.20980
C425        C  0.35742491  0.60909369  0.99732196    -0.09030
C426        C  0.32377903  0.60518054  0.03040405     0.29850
F427        F  0.31841363  0.63492400  0.06349501    -0.19550
H428        H  0.27265684  0.56554388  0.05813860     0.18210
H429        H  0.38823320  0.57984234  0.93825859     0.18220
F430        F  0.34189467  0.51235540  0.93120242    -0.19540
C431        C  0.21126545  0.92321235  0.02934531    -0.20970
C432        C  0.20865468  0.95467256  0.99453361    -0.09020
C433        C  0.17929196  0.94906602  0.95806492     0.29840
C434        C  0.15195522  0.91380263  0.95746163    -0.20980
C435        C  0.15375373  0.88291712  0.99267869    -0.09030
C436        C  0.18431365  0.88735294  0.02823435     0.29850
F437        F  0.18596687  0.85862019  0.06348287    -0.19550
H438        H  0.23297786  0.92721427  0.05827192     0.18210
H439        H  0.12852641  0.91102760  0.92987137     0.18220
F440        F  0.17633625  0.97834957  0.92346800    -0.19540
C441        C  0.30537898  0.92888583  0.96504015    -0.20970
C442        C  0.30387094  0.95680032  0.00253157    -0.09020
C443        C  0.33071510  0.94910422  0.04088173     0.29840
C444        C  0.35921030  0.91465987  0.04119627    -0.20980
C445        C  0.36130814  0.88723087  0.00339056    -0.09030
C446        C  0.33406596  0.89451823  0.96532946     0.29850
F447        F  0.33751412  0.87031121  0.92709068    -0.19550
H448        H  0.28573542  0.93487131  0.93472001     0.18210
H449        H  0.38022216  0.90974175  0.07067724     0.18220
F450        F  0.32974750  0.97536275  0.07776080    -0.19540
C451        C  0.17323647  0.53688089  0.03336035    -0.20970
C452        C  0.20614102  0.53466612  0.99950843    -0.09020
C453        C  0.21032805  0.56808580  0.96696196     0.29840
C454        C  0.18246988  0.60316689  0.96913863    -0.20980
C455        C  0.14901457  0.60463550  0.00249650    -0.09030
C456        C  0.14475610  0.57115980  0.03467530     0.29850
F457        F  0.11279219  0.57151083  0.06736449    -0.19550
H458        H  0.16914339  0.51146093  0.05852061     0.18210
H459        H  0.18563906  0.62818518  0.94337068     0.18220
F460        F  0.23981862  0.56595668  0.93187556    -0.19540
C461        C  0.29879319  0.78394873  0.18737912    -0.20970
C462        C  0.29761112  0.75296153  0.22328210    -0.09020
C463        C  0.33425398  0.72644009  0.22829799     0.29840
C464        C  0.36642498  0.72628327  0.19391962    -0.20980
C465        C  0.36318562  0.75276949  0.15475331    -0.09030
C466        C  0.33013512  0.78281587  0.15256085     0.29850
F467        F  0.32801240  0.81090931  0.11669778    -0.19550
H468        H  0.27274622  0.80671962  0.18393919     0.18210
H469        H  0.39353846  0.70472084  0.19740606     0.18220
F470        F  0.34022084  0.70152232  0.26622568    -0.19540
C471        C  0.14083973  0.75195906  0.19611139    -0.20970
C472        C  0.15034447  0.73927489  0.15052678    -0.09020
C473        C  0.19206238  0.72470742  0.14009884     0.29840
C474        C  0.22426255  0.72633622  0.17335558    -0.20980
C475        C  0.21685507  0.74484964  0.21735178    -0.09030
C476        C  0.17333940  0.75361250  0.22953618     0.29850
F477        F  0.16202685  0.76463405  0.27326239    -0.19550
H478        H  0.10824999  0.76131715  0.20588302     0.18210
H479        H  0.25550240  0.71335899  0.16381442     0.18220
F480        F  0.20182592  0.70828485  0.09798969    -0.19540
C481        C  0.28438358  0.82586274  0.34876737    -0.20970
C482        C  0.25354461  0.85776052  0.34382539    -0.09020
C483        C  0.22716347  0.85877388  0.30432939     0.29840
C484        C  0.22885197  0.82565194  0.27260258    -0.20980
C485        C  0.25636300  0.79072374  0.28036415    -0.09030
C486        C  0.28693968  0.79356219  0.31674476     0.29850
F487        F  0.31699360  0.76292623  0.32391988    -0.19630
H488        H  0.30651112  0.82581313  0.37777212     0.18210
H489        H  0.20813303  0.82734988  0.24264440     0.18220
F490        F  0.19865848  0.89087067  0.29736289    -0.19540
C491        C  0.25977909  0.67001183  0.26915802    -0.20970
C492        C  0.25012141  0.71100899  0.28494166    -0.09020
C493        C  0.23202261  0.71431000  0.33032185     0.29840
C494        C  0.23258216  0.68010534  0.36076490    -0.20980
C495        C  0.24832739  0.64090181  0.34665767    -0.09030
C496        C  0.26020332  0.63549398  0.29985672     0.29850
F497        F  0.27370785  0.59741910  0.28399357    -0.19550
H498        H  0.26958292  0.66509754  0.23351237     0.18210
H499        H  0.22010586  0.68437586  0.39563553     0.18220
F500        F  0.21272206  0.75005776  0.34586841    -0.19540
C501        C  0.42822162  0.85182465  0.46338910    -0.20970
C502        C  0.39138118  0.85027600  0.49253321    -0.09020
C503        C  0.38513388  0.81487970  0.52155062     0.29840
C504        C  0.41552666  0.78227220  0.52213282    -0.20980
C505        C  0.45218753  0.78304415  0.49260297    -0.09030
C506        C  0.45780984  0.81805299  0.46241030     0.29850
F507        F  0.49048544  0.81895443  0.43061342    -0.19550
H508        H  0.43321160  0.87854060  0.44011448     0.18210
H509        H  0.40992556  0.75587306  0.54562914     0.18220
F510        F  0.34991661  0.81204034  0.55005203    -0.19540
C511        C  0.05273968  0.67704395  0.46310825    -0.20970
C512        C  0.05196328  0.70666406  0.49902215    -0.09020
C513        C  0.08181699  0.70237349  0.53548605     0.29840
C514        C  0.11261153  0.66994035  0.53522287    -0.20980
C515        C  0.11360446  0.64069429  0.49916152    -0.09030
C516        C  0.08297740  0.64397416  0.46342583     0.29850
F517        F  0.08376228  0.61641468  0.42769940    -0.19550
H518        H  0.03108047  0.68048759  0.43396501     0.18210
H519        H  0.13565869  0.66754883  0.56327770     0.18220
F520        F  0.08175162  0.73026844  0.57090118    -0.19540
C521        C  0.08529557  0.78854692  0.46065792    -0.20970
C522        C  0.05124984  0.78583648  0.49333115    -0.09020
C523        C  0.04653544  0.81820342  0.52608553     0.29840
C524        C  0.07556875  0.85247072  0.52580586    -0.20980
C525        C  0.11046439  0.85405151  0.49405729    -0.09030
C526        C  0.11481650  0.82193744  0.46120641     0.29850
F527        F  0.14767700  0.82286383  0.42952721    -0.19550
H528        H  0.08970466  0.76391491  0.43525306     0.18210
H529        H  0.07196925  0.87681749  0.55165596     0.18220
F530        F  0.01549235  0.81563170  0.55964199    -0.19540
C531        C  0.40421139  0.66018773  0.45062972    -0.20970
C532        C  0.39645104  0.63708341  0.49158702    -0.09020
C533        C  0.42040320  0.64632205  0.53145328     0.29840
C534        C  0.45066418  0.67943382  0.53065524    -0.20980
C535        C  0.45712294  0.70373787  0.49014048    -0.09030
C536        C  0.43439308  0.69324596  0.44982261     0.29850
F537        F  0.44049406  0.71597434  0.41009873    -0.19550
H538        H  0.38631782  0.65305173  0.41951605     0.18210
H539        H  0.46722797  0.68772075  0.56224455     0.18220
F540        F  0.41279178  0.62481084  0.57169399    -0.19540
C541        C  0.29456164  0.77391950  0.81526431    -0.20970
C542        C  0.29678179  0.74510073  0.77792444    -0.09020
C543        C  0.33214149  0.71616940  0.77774326     0.29840
C544        C  0.36333314  0.71719721  0.81253746    -0.20980
C545        C  0.35937673  0.74486975  0.84980020    -0.09030
C546        C  0.32444847  0.77293312  0.85118757     0.29850
F547        F  0.31933565  0.79974802  0.88706131    -0.19550
H548        H  0.26829531  0.79658602  0.81733505     0.18210
H549        H  0.39012773  0.69505625  0.81118878     0.18220
F550        F  0.33691959  0.68557100  0.74574818    -0.19540
C551        C  0.18380071  0.71319508  0.84911556    -0.20970
C552        C  0.15026855  0.74271470  0.84611608    -0.09020
C553        C  0.14887838  0.77057525  0.80808730     0.29840
C554        C  0.18218971  0.77072424  0.77501434    -0.20980
C555        C  0.21669077  0.74121463  0.77723174    -0.09030
C556        C  0.21595259  0.71163501  0.81486593     0.29850
F557        F  0.24747799  0.68194188  0.81950365    -0.19550
H558        H  0.18487332  0.69092256  0.87790476     0.18210
H559        H  0.18063185  0.79515462  0.74881435     0.18220
F560        F  0.11622318  0.79914547  0.80399067    -0.19540
C561        C  0.28372060  0.85052540  0.67972674    -0.20970
C562        C  0.25264808  0.85035269  0.64478928    -0.09020
C563        C  0.22291217  0.81694356  0.64302526     0.29840
C564        C  0.22418595  0.78444824  0.67619494    -0.20980
C565        C  0.25567428  0.78356695  0.71180097    -0.09030
C566        C  0.28633350  0.81737727  0.71198240     0.29850
F567        F  0.32064528  0.81847030  0.74090218    -0.19550
H568        H  0.30752621  0.87573828  0.68083053     0.18210
H569        H  0.20062137  0.75914478  0.67376700     0.18220
F570        F  0.19219979  0.81598022  0.60959534    -0.19540
C571        C  0.22948069  0.67049075  0.71552011    -0.20970
C572        C  0.25896846  0.70480200  0.71141006    -0.09020
C573        C  0.28798726  0.70465361  0.67278430     0.29840
C574        C  0.28698575  0.67219195  0.64036317    -0.20980
C575        C  0.25818262  0.63824125  0.64586698    -0.09030
C576        C  0.22992806  0.63728284  0.68409406     0.29850
F577        F  0.20118323  0.60505651  0.68999835    -0.19550
H578        H  0.20505247  0.66872393  0.74236864     0.18210
H579        H  0.30925349  0.67331603  0.61109138     0.18220
F580        F  0.31759912  0.73604153  0.66632661    -0.19540
C581        C  0.75732847  0.24362469  0.74438261    -0.02160
O582        O  0.63174682  0.06848931  0.49714335    -0.74960
O583        O  0.68657404  0.11707484  0.50104010    -0.53870
C584        C  0.64617027  0.10660860  0.49916208     0.78770
O585        O  0.75593860  0.42281690  0.62497287    -0.59560
O586        O  0.74904084  0.37454204  0.56713002    -0.52590
C587        C  0.75237196  0.38475391  0.60998973     0.70780
O588        O  0.75414824  0.06603612  0.62591636    -0.74120
O589        O  0.75866060  0.11597814  0.56821814    -0.54680
C590        C  0.75692218  0.10456597  0.61109536     0.76790
O591        O  0.62934855  0.42643905  0.49978049    -0.59260
O592        O  0.68328433  0.37732112  0.49284735    -0.52380
C593        C  0.64309678  0.38818312  0.49586419     0.73380
Zr594      Zr  0.66158597  0.49713240  0.49875874     2.54710
O595        O  0.60887890  0.49834839  0.56205831    -0.79830
O596        O  0.60635808  0.49657433  0.43890324    -0.93250
Zr597      Zr  0.75419951  0.49485101  0.59353276     2.64680
O598        O  0.69713841  0.99431147  0.65259844    -0.98200
O599        O  0.81130444  0.49430712  0.65133575    -0.80260
O600        O  0.70785052  0.03713326  0.54692568    -0.83620
O601        O  0.70673853  0.45506422  0.54660953    -2.18330
O602        O  0.74816703  0.42889800  0.36477988    -0.67010
O603        O  0.75328779  0.37868353  0.42198572    -0.51570
C604        C  0.75095039  0.39051792  0.37919541     0.71760
O605        O  0.87655672  0.06523778  0.49400009    -0.59920
O606        O  0.82304618  0.11530516  0.49232801    -0.51890
C607        C  0.86313858  0.10374549  0.49270294     0.73560
O608        O  0.87419999  0.42330468  0.49024486    -0.71310
O609        O  0.81896313  0.37525344  0.49586194    -0.49990
C610        C  0.85945169  0.38520365  0.49268594     0.74950
O611        O  0.75128695  0.06828230  0.36588330    -0.66640
O612        O  0.75173822  0.11633035  0.42414347    -0.53840
C613        C  0.75083237  0.10623900  0.38104602     0.73330
Zr614      Zr  0.75145955  0.49795663  0.39946995     2.77540
O615        O  0.80901390  0.99882480  0.34096082    -0.97390
O616        O  0.69340066  0.50014160  0.34283854    -0.78210
Zr617      Zr  0.84424286  0.49478802  0.49426526     2.70070
O618        O  0.89997251  0.49569935  0.43396789    -0.79460
O619        O  0.89633841  0.49247202  0.55719831    -0.98540
Zr620      Zr  0.75426683  0.07729446  0.49669916     2.21500
Zr621      Zr  0.75167647  0.41525672  0.49552430     2.11130
O622        O  0.79795075  0.45565990  0.44555406    -2.47230
O623        O  0.79942372  0.03741812  0.44621660    -0.79250
O624        O  0.70517355  0.45650488  0.44783578    -0.71450
O625        O  0.80050390  0.03572019  0.54476571    -2.32400
O626        O  0.70649186  0.03845537  0.44864385    -2.28610
O627        O  0.79915266  0.45367525  0.54432585    -0.73210
H628        H  0.68896060  0.43668895  0.56585717     0.78790
H629        H  0.81884946  0.05344711  0.56334288     0.79880
H630        H  0.81520445  0.43763182  0.42587985     0.82100
H631        H  0.68870460  0.05709755  0.43010535     0.79710
H632        H  0.83399643  0.01298601  0.63846172     0.42740
H633        H  0.88769028  0.46751426  0.57616368     0.41710
H634        H  0.88542688  0.00779490  0.40663122     0.41390
H635        H  0.82550011  0.47251731  0.34643970     0.39330
H636        H  0.67014637  0.48228534  0.35665718     0.42460
H637        H  0.61402725  0.02061842  0.41789127     0.37240
H638        H  0.62314466  0.01462187  0.58651938     0.43360
H639        H  0.67992585  0.46877690  0.64646682     0.39770
H640        H  0.79363432  0.49393451  0.31129681     0.44690
H641        H  0.57942466  0.50558874  0.45492263     0.43420
H642        H  0.71272679  0.48756635  0.68195223     0.43550
H643        H  0.92401601  0.48411205  0.54223154     0.43910
C644        C  0.98091376  0.24472206  0.49189102     0.00900
C645        C  0.52524911  0.24597933  0.49530064     0.00890
C646        C  0.75490001  0.24968155  0.25187318    -0.02160
C647        C  0.73327915  0.49544559  0.99763050     0.00900
C648        C  0.77764114  0.49645378  0.00010956     0.00890
O649        O  0.57700388  0.24652296  0.86864845    -0.74960
O650        O  0.62861613  0.24216180  0.92490539    -0.53870
C651        C  0.61649841  0.24396090  0.88232678     0.78770
O652        O  0.93445047  0.36583740  0.00398134    -0.59560
O653        O  0.88195679  0.31493105  0.99931899    -0.52590
C654        C  0.89458668  0.35368254  0.00221068     0.70780
O655        O  0.58038082  0.36296456  0.99300006    -0.74120
O656        O  0.63132154  0.31060307  0.99807351    -0.54680
C657        C  0.61986444  0.34976062  0.99473070     0.76790
O658        O  0.93243608  0.24305429  0.87116424    -0.59260
O659        O  0.88107578  0.24821364  0.92843306    -0.52380
C660        C  0.89296684  0.24534379  0.88565331     0.73380
Zr661      Zr  0.50485301  0.24603363  0.90310577     2.54710
O662        O  0.50323552  0.30314840  0.84587909    -0.79830
O663        O  0.00441785  0.19087007  0.84487266    -0.93250
Zr664      Zr  0.50685789  0.33463294  0.99817582     2.64680
O665        O  0.50525048  0.38663102  0.93528335    -0.98200
O666        O  0.51089581  0.38854186  0.05758633    -0.80260
O667        O  0.54853756  0.29014036  0.94938708    -0.83620
O668        O  0.96327684  0.29174110  0.95041262    -2.18330
O669        O  0.93034497  0.12979026  0.99707466    -0.67010
O670        O  0.87908559  0.18164843  0.00331274    -0.51570
C671        C  0.89078789  0.14264125  0.99962728     0.71760
O672        O  0.57710468  0.24196471  0.12923979    -0.59920
O673        O  0.62827048  0.24144659  0.07170937    -0.51890
C674        C  0.61649553  0.24076938  0.11471645     0.73560
O675        O  0.93529900  0.24764081  0.13134118    -0.71310
O676        O  0.88335964  0.25192558  0.07545815    -0.49990
C677        C  0.89592077  0.25064360  0.11796008     0.74950
O678        O  0.57611883  0.12674887  0.00402159    -0.66640
O679        O  0.62888111  0.17736625  0.99768886    -0.53840
C680        C  0.61606542  0.13863224  0.00135776     0.73330
Zr681      Zr  0.50376808  0.15777024  0.00090205     2.77540
O682        O  0.50036569  0.10493671  0.06292870    -0.97390
O683        O  0.50574660  0.10477632  0.94040208    -0.78210
Zr684      Zr  0.50600964  0.24626160  0.09570189     2.70070
O685        O  0.50349256  0.19162624  0.15576783    -0.79460
O686        O  0.50977531  0.30433782  0.15020728    -0.98540
Zr687      Zr  0.58985466  0.24452826  0.99842817     2.21500
Zr688      Zr  0.92072708  0.24767715  0.00096733     2.11130
O689        O  0.96217675  0.20196773  0.04989004    -2.47230
O690        O  0.54744474  0.20045061  0.04863290    -0.79250
O691        O  0.96179377  0.20210751  0.95208757    -0.71450
O692        O  0.54903167  0.29047349  0.04717762    -2.32400
O693        O  0.54668001  0.20040081  0.95055155    -2.28610
O694        O  0.96388549  0.29182822  0.04853618    -0.73210
H695        H  0.94494676  0.30932826  0.93125306     0.78790
H696        H  0.56802415  0.30743722  0.06587596     0.79880
H697        H  0.94343720  0.18494340  0.06959117     0.82100
H698        H  0.56467595  0.18252350  0.93146040     0.79710
H699        H  0.52958303  0.37612313  0.08191751     0.42740
H700        H  0.98454620  0.32243077  0.14263597     0.41710
H701        H  0.51515905  0.16610794  0.14050759     0.41390
H702        H  0.97289623  0.11075211  0.07971786     0.39330
H703        H  0.98829967  0.11716190  0.91499745     0.42460
H704        H  0.52987068  0.17295216  0.85204701     0.37240
H705        H  0.52357207  0.32457795  0.85788512     0.43360
H706        H  0.97738278  0.38170902  0.91939869     0.39770
H707        H  0.49506203  0.07792835  0.04689260     0.44690
H708        H  0.01231231  0.20561214  0.81552746     0.43420
H709        H  0.50132903  0.41406916  0.95096369     0.43550
H710        H  0.50232420  0.29134261  0.18063851     0.43910
C711        C  0.79712721  0.06899118  0.03124561    -0.20970
C712        C  0.80314465  0.03680139  0.99843588    -0.09020
C713        C  0.83571620  0.04194041  0.96435482     0.29840
C714        C  0.86258134  0.07742065  0.96414861    -0.20980
C715        C  0.85739254  0.10910292  0.99733988    -0.09030
C716        C  0.82374747  0.10519136  0.03042242     0.29850
F717        F  0.81837496  0.13494113  0.06350538    -0.19550
H718        H  0.77263496  0.06554936  0.05816641     0.18210
H719        H  0.88820595  0.07984931  0.93828048     0.18220
F720        F  0.84188153  0.01235166  0.93124008    -0.19540
C721        C  0.71128280  0.42319528  0.02930170    -0.20970
C722        C  0.70865021  0.45467112  0.99450735    -0.09020
C723        C  0.67925626  0.44907909  0.95806355     0.29840
C724        C  0.65191567  0.41381684  0.95746774    -0.20980
C725        C  0.65373828  0.38291439  0.99266634    -0.09030
C726        C  0.68432755  0.38733587  0.02819647     0.29850
F727        F  0.68600859  0.35858814  0.06342848    -0.19550
H728        H  0.73301578  0.42718383  0.05821278     0.18210
H729        H  0.62846584  0.41105513  0.92989615     0.18220
F730        F  0.67627408  0.47837549  0.92348262    -0.19540
C731        C  0.80539795  0.42890179  0.96498346    -0.20970
C732        C  0.80386983  0.45679974  0.00248857    -0.09020
C733        C  0.83068524  0.44908524  0.04085672     0.29840
C734        C  0.85917491  0.41463807  0.04117641    -0.20980
C735        C  0.86129583  0.38722746  0.00335669    -0.09030
C736        C  0.83408232  0.39453286  0.96527621     0.29850
F737        F  0.83755600  0.37034176  0.92702673    -0.19550
H738        H  0.78577323  0.43490198  0.93465253     0.18210
H739        H  0.88016542  0.40970397  0.07067189     0.18220
F740        F  0.82969398  0.47532803  0.07774882    -0.19540
C741        C  0.67321574  0.03687110  0.03337777    -0.20970
C742        C  0.70612865  0.03466291  0.99953392    -0.09020
C743        C  0.71031195  0.06808217  0.96698639     0.29840
C744        C  0.68244510  0.10315766  0.96915683    -0.20980
C745        C  0.64898354  0.10462089  0.00250837    -0.09030
C746        C  0.64472613  0.07114351  0.03468555     0.29850
F747        F  0.61275590  0.07148728  0.06736791    -0.19550
H748        H  0.66912346  0.01145076  0.05853771     0.18210
H749        H  0.68561403  0.12817653  0.94338953     0.18220
F750        F  0.73980796  0.06595806  0.93190487    -0.19540
C751        C  0.79874577  0.28395312  0.18737632    -0.20970
C752        C  0.79757294  0.25297007  0.22328379    -0.09020
C753        C  0.83422553  0.22646219  0.22830580     0.29840
C754        C  0.86639857  0.22631216  0.19393001    -0.20980
C755        C  0.86315240  0.25279181  0.15475931    -0.09030
C756        C  0.83009037  0.28282617  0.15255962     0.29850
F757        F  0.82795829  0.31091250  0.11669072    -0.19550
H758        H  0.77269051  0.30671450  0.18393193     0.18210
H759        H  0.89351886  0.20475855  0.19742149     0.18220
F760        F  0.84019965  0.20155050  0.26623689    -0.19540
C761        C  0.64080066  0.25191758  0.19612153    -0.20970
C762        C  0.65030945  0.23924460  0.15053406    -0.09020
C763        C  0.69203025  0.22468642  0.14010372     0.29840
C764        C  0.72423073  0.22632163  0.17335945    -0.20980
C765        C  0.71681843  0.24483103  0.21735670    -0.09030
C766        C  0.67330000  0.25357558  0.22954544     0.29850
F767        F  0.66198477  0.26458691  0.27327412    -0.19550
H768        H  0.60820855  0.26126576  0.20589577     0.18210
H769        H  0.75547452  0.21335451  0.16381629     0.18220
F770        F  0.70179711  0.20827005  0.09799244    -0.19540
C771        C  0.78432084  0.32587340  0.34876321    -0.20970
C772        C  0.75346553  0.35775695  0.34382765    -0.09020
C773        C  0.72707741  0.35875812  0.30433671     0.29840
C774        C  0.72877921  0.32563786  0.27260782    -0.20980
C775        C  0.75630931  0.29072257  0.28036388    -0.09030
C776        C  0.78688818  0.29357443  0.31674053     0.29850
F777        F  0.81695657  0.26295167  0.32391284    -0.19630
H778        H  0.80645373  0.32583385  0.37776321     0.18210
H779        H  0.70805566  0.32732677  0.24265284     0.18220
F780        F  0.69855480  0.39084110  0.29737647    -0.19540
C781        C  0.75977169  0.17001191  0.26916087    -0.20970
C782        C  0.75010006  0.21100569  0.28494507    -0.09020
C783        C  0.73200713  0.21430156  0.33032811     0.29840
C784        C  0.73258806  0.18009899  0.36077283    -0.20980
C785        C  0.74834975  0.14090182  0.34666460    -0.09030
C786        C  0.76021797  0.13549619  0.29986115     0.29850
F787        F  0.77373488  0.09742609  0.28399613    -0.19550
H788        H  0.76957163  0.16510021  0.23351356     0.18210
H789        H  0.72011493  0.18436606  0.39564525     0.18220
F790        F  0.71269214  0.25004156  0.34587591    -0.19540
C791        C  0.92822307  0.35181642  0.46334622    -0.20970
C792        C  0.89137535  0.35027299  0.49248021    -0.09020
C793        C  0.88512236  0.31488229  0.52150507     0.29840
C794        C  0.91551634  0.28227661  0.52210547    -0.20980
C795        C  0.95218483  0.28304353  0.49258683    -0.09030
C796        C  0.95781318  0.31804567  0.46238577     0.29850
F797        F  0.99049712  0.31894124  0.43059854    -0.19550
H798        H  0.93321862  0.37852780  0.44006661     0.18210
H799        H  0.90991013  0.25588270  0.54560755     0.18220
F800        F  0.84989872  0.31204692  0.54999787    -0.19540
C801        C  0.55273117  0.17705140  0.46308664    -0.20970
C802        C  0.55196148  0.20666395  0.49900843    -0.09020
C803        C  0.58182047  0.20236451  0.53546583     0.29840
C804        C  0.61261343  0.16993023  0.53518867    -0.20980
C805        C  0.61359995  0.14069152  0.49911955    -0.09030
C806        C  0.58296751  0.14398029  0.46339003     0.29850
F807        F  0.58374582  0.11642903  0.42765584    -0.19550
H808        H  0.53106744  0.18050216  0.43394816     0.18210
H809        H  0.63566437  0.16753179  0.56323934     0.18220
F810        F  0.58176150  0.23025165  0.57088833    -0.19540
C811        C  0.58530133  0.28855424  0.46068253    -0.20970
C812        C  0.55124644  0.28583937  0.49334405    -0.09020
C813        C  0.54652125  0.31820374  0.52610039     0.29840
C814        C  0.57555433  0.35247155  0.52583531    -0.20980
C815        C  0.61045994  0.35405573  0.49409931    -0.09030
C816        C  0.61482123  0.32194485  0.46124527     0.29850
F817        F  0.64769017  0.32287402  0.42957609    -0.19550
H818        H  0.58971856  0.26392531  0.43527561     0.18210
H819        H  0.57194634  0.37681571  0.55168706     0.18220
F820        F  0.51546772  0.31562881  0.55964557    -0.19540
C821        C  0.90420078  0.16017654  0.45067698    -0.20970
C822        C  0.89644745  0.13708366  0.49164353    -0.09020
C823        C  0.92040799  0.14633245  0.53150107     0.29840
C824        C  0.95067000  0.17944353  0.53068469    -0.20980
C825        C  0.95712190  0.20373588  0.49016004    -0.09030
C826        C  0.93438389  0.19323306  0.44985130     0.29850
F827        F  0.94047822  0.21594947  0.41011820    -0.19550
H828        H  0.88630129  0.15303204  0.41956961     0.18210
H829        H  0.96723969  0.18773964  0.56226747     0.18220
F830        F  0.91280298  0.12483349  0.57175087    -0.19540
C831        C  0.79451658  0.27391026  0.81528472    -0.20970
C832        C  0.79673623  0.24509354  0.77794221    -0.09020
C833        C  0.83209214  0.21615836  0.77776271     0.29840
C834        C  0.86328487  0.21718476  0.81255629    -0.20980
C835        C  0.85933229  0.24485860  0.84981864    -0.09030
C836        C  0.82440358  0.27292195  0.85120848     0.29850
F837        F  0.81929128  0.29973597  0.88708391    -0.19550
H838        H  0.76825187  0.29657852  0.81735574     0.18210
H839        H  0.89007779  0.19504194  0.81120712     0.18220
F840        F  0.83686526  0.18555770  0.74576952    -0.19540
C841        C  0.68374808  0.21317989  0.84910741    -0.20970
C842        C  0.65022509  0.24270939  0.84611838    -0.09020
C843        C  0.64884336  0.27058504  0.80810241     0.29840
C844        C  0.68215547  0.27073691  0.77503023    -0.20980
C845        C  0.71664785  0.24121757  0.77723851    -0.09030
C846        C  0.71590107  0.21162505  0.81486018     0.29850
F847        F  0.74741827  0.18192214  0.81948636    -0.19550
H848        H  0.68481298  0.19089643  0.87788697     0.18210
H849        H  0.68060686  0.29517602  0.74883882     0.18220
F850        F  0.61619662  0.29916607  0.80401925    -0.19540
C851        C  0.78371908  0.35051666  0.67973724    -0.20970
C852        C  0.75265354  0.35035083  0.64479253    -0.09020
C853        C  0.72290176  0.31695451  0.64303136     0.29840
C854        C  0.72415730  0.28446253  0.67620692    -0.20980
C855        C  0.75564329  0.28357095  0.71181516    -0.09030
C856        C  0.78631328  0.31737197  0.71199906     0.29850
F857        F  0.82061845  0.31845870  0.74092797    -0.19550
H858        H  0.80753392  0.37572115  0.68084269     0.18210
H859        H  0.70058294  0.25916773  0.67377914     0.18220
F860        F  0.69219210  0.31600025  0.60959818    -0.19540
C861        C  0.72941636  0.17050523  0.71551295    -0.20970
C862        C  0.75892016  0.20480522  0.71141699    -0.09020
C863        C  0.78794703  0.20465014  0.67279867     0.29840
C864        C  0.78694374  0.17218920  0.64037625    -0.20980
C865        C  0.75812815  0.13824696  0.64587017    -0.09030
C866        C  0.72986073  0.13729828  0.68408609     0.29850
F867        F  0.70110071  0.10508309  0.68997799    -0.19550
H868        H  0.70497658  0.16874674  0.74234994     0.18210
H869        H  0.80921969  0.17330710  0.61111137     0.18220
F870        F  0.81756846  0.23603076  0.66634970    -0.19540
C871        C  0.75737028  0.74362357  0.74437155    -0.02160
O872        O  0.63175106  0.56849194  0.49723096    -0.74960
O873        O  0.68658060  0.61708060  0.50106067    -0.53870
C874        C  0.64617559  0.60661260  0.49921549     0.78770
O875        O  0.75589152  0.92282198  0.62497700    -0.59560
O876        O  0.74902630  0.87454543  0.56713058    -0.52590
C877        C  0.75234737  0.88475792  0.60999082     0.70780
O878        O  0.75422334  0.56603019  0.62591323    -0.74120
O879        O  0.75869376  0.61597454  0.56821385    -0.54680
C880        C  0.75697694  0.60456086  0.61109166     0.76790
O881        O  0.62934933  0.92643607  0.49970040    -0.59260
O882        O  0.68328965  0.87731650  0.49281565    -0.52380
C883        C  0.64310060  0.88817906  0.49580986     0.73380
Zr884      Zr  0.66158254  0.99712965  0.49866363     2.54710
O885        O  0.60877622  0.99834591  0.56186878    -0.79830
O886        O  0.60645074  0.99656993  0.43870714    -0.93250
Zr887      Zr  0.75409619  0.99485457  0.59353878     2.64680
O888        O  0.69740548  0.49432130  0.65277134    -0.98200
O889        O  0.81103056  0.99434274  0.65153048    -0.80260
O890        O  0.70790499  0.53713006  0.54697085    -0.83620
O891        O  0.70669125  0.95506028  0.54656256    -2.18330
O892        O  0.74827267  0.92890202  0.36477875    -0.67010
O893        O  0.75333515  0.87868278  0.42198613    -0.51570
C894        C  0.75103096  0.89052028  0.37919440     0.71760
O895        O  0.87655997  0.56523714  0.49389332    -0.59920
O896        O  0.82304899  0.61530637  0.49229519    -0.51890
C897        C  0.86314171  0.60374562  0.49263282     0.73560
O898        O  0.87420316  0.92330685  0.49033449    -0.71310
O899        O  0.81896639  0.87525145  0.49589900    -0.49990
C900        C  0.85945572  0.88520453  0.49274891     0.74950
O901        O  0.75122118  0.56828005  0.36587774    -0.66640
O902        O  0.75171936  0.61632942  0.42413616    -0.53840
C903        C  0.75079382  0.60623749  0.38103943     0.73330
Zr904      Zr  0.75155069  0.99795867  0.39947242     2.77540
O905        O  0.80883370  0.49880789  0.34085851    -0.97390
O906        O  0.69358516  0.00012781  0.34273192    -0.78210
Zr907      Zr  0.84424193  0.99478773  0.49436881     2.70070
O908        O  0.90005970  0.99570608  0.43416487    -0.79460
O909        O  0.89625696  0.99245456  0.55737734    -0.98540
Zr910      Zr  0.75426974  0.57729558  0.49669284     2.21500
Zr911      Zr  0.75167993  0.91525622  0.49552479     2.11130
O912        O  0.79799826  0.95566077  0.44560401    -2.47230
O913        O  0.79937755  0.53741681  0.44616290    -0.79250
O914        O  0.70521965  0.95650385  0.44778668    -0.71450
O915        O  0.80055255  0.53572228  0.54470778    -2.32400
O916        O  0.70644965  0.53845673  0.44868751    -2.28610
O917        O  0.79910290  0.95367976  0.54438208    -0.73210
H918        H  0.68890143  0.93668124  0.56579307     0.78790
H919        H  0.81891258  0.55345228  0.56326508     0.79880
H920        H  0.81526788  0.93763339  0.42594486     0.82100
H921        H  0.68864982  0.55709926  0.43016326     0.79710
H922        H  0.83397204  0.51342848  0.63850966     0.42740
H923        H  0.88765677  0.96742560  0.57625318     0.41710
H924        H  0.88531508  0.50783676  0.40647452     0.41390
H925        H  0.82564683  0.97251278  0.34653490     0.39330
H926        H  0.67029025  0.98231371  0.35653723     0.42460
H927        H  0.61392501  0.52060002  0.41805150     0.37240
H928        H  0.62332090  0.51455126  0.58671782     0.43360
H929        H  0.67976687  0.96868867  0.64633304     0.39770
H930        H  0.79385440  0.99399868  0.31136579     0.44690
H931        H  0.57948466  0.00554892  0.45468811     0.43420
H932        H  0.71240222  0.98769575  0.68185057     0.43550
H933        H  0.92397828  0.98420822  0.54242529     0.43910
C934        C  0.98091569  0.74472248  0.49188945     0.00900
C935        C  0.52525111  0.74597831  0.49530040     0.00890
C936        C  0.75493750  0.74968467  0.25187117    -0.02160
C937        C  0.73327518  0.99544620  0.99766176     0.00900
C938        C  0.77763603  0.99645395  0.00015052     0.00890
O939        O  0.57704546  0.74653689  0.86864550    -0.74960
O940        O  0.62865465  0.74217263  0.92490442    -0.53870
C941        C  0.61653979  0.74397108  0.88232475     0.78770
O942        O  0.93446680  0.86584224  0.00400986    -0.59560
O943        O  0.88197770  0.81493352  0.99932710    -0.52590
C944        C  0.89460329  0.85368602  0.00223435     0.70780
O945        O  0.58039874  0.86297210  0.99300744    -0.74120
O946        O  0.63134177  0.81061112  0.99807221    -0.54680
C947        C  0.61988184  0.84976719  0.99473538     0.76790
O948        O  0.93247759  0.74307048  0.87115092    -0.59260
O949        O  0.88111252  0.74822024  0.92841676    -0.52380
C950        C  0.89300756  0.74535494  0.88563760     0.73380
Zr951      Zr  0.50488999  0.74606158  0.90309743     2.54710
O952        O  0.50327870  0.80321885  0.84592113    -0.79830
O953        O  0.00445781  0.69094362  0.84481264    -0.93250
Zr954      Zr  0.50687685  0.83464208  0.99818333     2.64680
O955        O  0.50525608  0.88664680  0.93529779    -0.98200
O956        O  0.51091912  0.88854671  0.05759848    -0.80260
O957        O  0.54856785  0.79016107  0.94939053    -0.83620
O958        O  0.96330183  0.79175397  0.95041139    -2.18330
O959        O  0.93037964  0.62978630  0.99705330    -0.67010
O960        O  0.87911844  0.68164221  0.00329643    -0.51570
C961        C  0.89082147  0.64263465  0.99960906     0.71760
O962        O  0.57713711  0.74198168  0.12923452    -0.59920
O963        O  0.62830149  0.74146610  0.07170275    -0.51890
C964        C  0.61652817  0.74079202  0.11471038     0.73560
O965        O  0.93533096  0.74761637  0.13133508    -0.71310
O966        O  0.88339164  0.75191279  0.07545225    -0.49990
C967        C  0.89595310  0.75062197  0.11795404     0.74950
O968        O  0.57615167  0.62676216  0.00400296    -0.66640
O969        O  0.62891380  0.67738049  0.99768252    -0.53840
C970        C  0.61609797  0.63864652  0.00134581     0.73330
Zr971      Zr  0.50380019  0.65777865  0.00087682     2.77540
O972        O  0.50040485  0.60492350  0.06288150    -0.97390
O973        O  0.50578799  0.60481039  0.94035020    -0.78210
Zr974      Zr  0.50604018  0.74625984  0.09569390     2.70070
O975        O  0.50354463  0.69164074  0.15577806    -0.79460
O976        O  0.50978778  0.80435527  0.15017658    -0.98540
Zr977      Zr  0.58988268  0.74453814  0.99842236     2.21500
Zr978      Zr  0.92075436  0.74767857  0.00095740     2.11130
O979        O  0.96220987  0.70196806  0.04987379    -2.47230
O980        O  0.54747437  0.70045238  0.04861930    -0.79250
O981        O  0.96182926  0.70212361  0.95206829    -0.71450
O982        O  0.54905719  0.79047854  0.04717530    -2.32400
O983        O  0.54671227  0.70041778  0.95053523    -2.28610
O984        O  0.96390888  0.79182565  0.04853465    -0.73210
H985        H  0.94497025  0.80934246  0.93125494     0.78790
H986        H  0.56804861  0.80744159  0.06587552     0.79880
H987        H  0.94347232  0.68493925  0.06957242     0.82100
H988        H  0.56470889  0.68254326  0.93144160     0.79710
H989        H  0.52966838  0.87615536  0.08189108     0.42740
H990        H  0.98455618  0.82244117  0.14259455     0.41710
H991        H  0.51514169  0.66610168  0.14050029     0.41390
H992        H  0.97294602  0.61074421  0.07968828     0.39330
H993        H  0.98836434  0.61721662  0.91493898     0.42460
H994        H  0.52989578  0.67300614  0.85198895     0.37240
H995        H  0.52366421  0.82461132  0.85791259     0.43360
H996        H  0.97737949  0.88173445  0.91942705     0.39770
H997        H  0.49508170  0.57792333  0.04683647     0.44690
H998        H  0.01237816  0.70570306  0.81548553     0.43420
H999        H  0.50135014  0.91408442  0.95098343     0.43550
H1000       H  0.50233548  0.79136890  0.18061191     0.43910
C1001       C  0.79714946  0.56898545  0.03121820    -0.20970
C1002       C  0.80315788  0.53680004  0.99840090    -0.09020
C1003       C  0.83573394  0.54193894  0.96432355     0.29840
C1004       C  0.86260799  0.57741422  0.96412605    -0.20980
C1005       C  0.85742491  0.60909369  0.99732196    -0.09030
C1006       C  0.82377903  0.60518054  0.03040405     0.29850
F1007       F  0.81841363  0.63492400  0.06349501    -0.19550
H1008       H  0.77265684  0.56554388  0.05813860     0.18210
H1009       H  0.88823320  0.57984234  0.93825859     0.18220
F1010       F  0.84189467  0.51235540  0.93120242    -0.19540
C1011       C  0.71126545  0.92321235  0.02934531    -0.20970
C1012       C  0.70865468  0.95467256  0.99453361    -0.09020
C1013       C  0.67929196  0.94906602  0.95806492     0.29840
C1014       C  0.65195522  0.91380263  0.95746163    -0.20980
C1015       C  0.65375373  0.88291712  0.99267869    -0.09030
C1016       C  0.68431365  0.88735294  0.02823435     0.29850
F1017       F  0.68596687  0.85862019  0.06348287    -0.19550
H1018       H  0.73297786  0.92721427  0.05827192     0.18210
H1019       H  0.62852641  0.91102760  0.92987137     0.18220
F1020       F  0.67633625  0.97834957  0.92346800    -0.19540
C1021       C  0.80537897  0.92888583  0.96504015    -0.20970
C1022       C  0.80387094  0.95680032  0.00253157    -0.09020
C1023       C  0.83071510  0.94910422  0.04088173     0.29840
C1024       C  0.85921030  0.91465987  0.04119627    -0.20980
C1025       C  0.86130814  0.88723087  0.00339056    -0.09030
C1026       C  0.83406596  0.89451823  0.96532946     0.29850
F1027       F  0.83751412  0.87031121  0.92709068    -0.19550
H1028       H  0.78573542  0.93487131  0.93472001     0.18210
H1029       H  0.88022216  0.90974175  0.07067724     0.18220
F1030       F  0.82974750  0.97536275  0.07776080    -0.19540
C1031       C  0.67323648  0.53688089  0.03336035    -0.20970
C1032       C  0.70614102  0.53466612  0.99950843    -0.09020
C1033       C  0.71032805  0.56808580  0.96696196     0.29840
C1034       C  0.68246988  0.60316689  0.96913863    -0.20980
C1035       C  0.64901457  0.60463550  0.00249651    -0.09030
C1036       C  0.64475611  0.57115980  0.03467531     0.29850
F1037       F  0.61279219  0.57151083  0.06736449    -0.19550
H1038       H  0.66914340  0.51146093  0.05852061     0.18210
H1039       H  0.68563906  0.62818518  0.94337069     0.18220
F1040       F  0.73981862  0.56595668  0.93187557    -0.19540
C1041       C  0.79879319  0.78394873  0.18737912    -0.20970
C1042       C  0.79761112  0.75296153  0.22328210    -0.09020
C1043       C  0.83425398  0.72644009  0.22829799     0.29840
C1044       C  0.86642498  0.72628327  0.19391961    -0.20980
C1045       C  0.86318562  0.75276949  0.15475331    -0.09030
C1046       C  0.83013512  0.78281587  0.15256085     0.29850
F1047       F  0.82801240  0.81090931  0.11669778    -0.19550
H1048       H  0.77274622  0.80671962  0.18393919     0.18210
H1049       H  0.89353846  0.70472084  0.19740605     0.18220
F1050       F  0.84022084  0.70152232  0.26622568    -0.19540
C1051       C  0.64083973  0.75195905  0.19611139    -0.20970
C1052       C  0.65034447  0.73927489  0.15052678    -0.09020
C1053       C  0.69206238  0.72470742  0.14009884     0.29840
C1054       C  0.72426255  0.72633622  0.17335558    -0.20980
C1055       C  0.71685507  0.74484964  0.21735178    -0.09030
C1056       C  0.67333940  0.75361249  0.22953618     0.29850
F1057       F  0.66202685  0.76463405  0.27326239    -0.19550
H1058       H  0.60824999  0.76131715  0.20588302     0.18210
H1059       H  0.75550240  0.71335899  0.16381442     0.18220
F1060       F  0.70182592  0.70828485  0.09798969    -0.19540
C1061       C  0.78438358  0.82586274  0.34876737    -0.20970
C1062       C  0.75354461  0.85776052  0.34382539    -0.09020
C1063       C  0.72716347  0.85877388  0.30432939     0.29840
C1064       C  0.72885197  0.82565194  0.27260258    -0.20980
C1065       C  0.75636300  0.79072374  0.28036415    -0.09030
C1066       C  0.78693968  0.79356219  0.31674476     0.29850
F1067       F  0.81699360  0.76292623  0.32391987    -0.19630
H1068       H  0.80651112  0.82581313  0.37777211     0.18210
H1069       H  0.70813302  0.82734988  0.24264440     0.18220
F1070       F  0.69865848  0.89087067  0.29736289    -0.19540
C1071       C  0.75977909  0.67001183  0.26915802    -0.20970
C1072       C  0.75012141  0.71100899  0.28494166    -0.09020
C1073       C  0.73202261  0.71431000  0.33032185     0.29840
C1074       C  0.73258216  0.68010534  0.36076490    -0.20980
C1075       C  0.74832739  0.64090181  0.34665767    -0.09030
C1076       C  0.76020332  0.63549398  0.29985672     0.29850
F1077       F  0.77370785  0.59741910  0.28399357    -0.19550
H1078       H  0.76958292  0.66509754  0.23351237     0.18210
H1079       H  0.72010587  0.68437586  0.39563553     0.18220
F1080       F  0.71272206  0.75005776  0.34586841    -0.19540
C1081       C  0.92822162  0.85182465  0.46338910    -0.20970
C1082       C  0.89138118  0.85027600  0.49253321    -0.09020
C1083       C  0.88513388  0.81487970  0.52155062     0.29840
C1084       C  0.91552666  0.78227219  0.52213282    -0.20980
C1085       C  0.95218753  0.78304415  0.49260297    -0.09030
C1086       C  0.95780984  0.81805299  0.46241030     0.29850
F1087       F  0.99048544  0.81895444  0.43061343    -0.19550
H1088       H  0.93321160  0.87854061  0.44011449     0.18210
H1089       H  0.90992556  0.75587305  0.54562913     0.18220
F1090       F  0.84991661  0.81204033  0.55005202    -0.19540
C1091       C  0.55273968  0.67704394  0.46310826    -0.20970
C1092       C  0.55196328  0.70666406  0.49902215    -0.09020
C1093       C  0.58181700  0.70237350  0.53548605     0.29840
C1094       C  0.61261153  0.66994035  0.53522287    -0.20980
C1095       C  0.61360446  0.64069429  0.49916153    -0.09030
C1096       C  0.58297740  0.64397415  0.46342584     0.29850
F1097       F  0.58376227  0.61641466  0.42769941    -0.19550
H1098       H  0.53108046  0.68048758  0.43396503     0.18210
H1099       H  0.63565870  0.66754884  0.56327769     0.18220
F1100       F  0.58175163  0.73026845  0.57090117    -0.19540
C1101       C  0.58529557  0.78854692  0.46065792    -0.20970
C1102       C  0.55124984  0.78583648  0.49333114    -0.09020
C1103       C  0.54653544  0.81820343  0.52608552     0.29840
C1104       C  0.57556875  0.85247072  0.52580585    -0.20980
C1105       C  0.61046439  0.85405151  0.49405728    -0.09030
C1106       C  0.61481650  0.82193744  0.46120640     0.29850
F1107       F  0.64767700  0.82286383  0.42952721    -0.19550
H1108       H  0.58970466  0.76391491  0.43525306     0.18210
H1109       H  0.57196925  0.87681749  0.55165595     0.18220
F1110       F  0.51549235  0.81563170  0.55964199    -0.19540
C1111       C  0.90421139  0.66018773  0.45062972    -0.20970
C1112       C  0.89645104  0.63708341  0.49158702    -0.09020
C1113       C  0.92040319  0.64632205  0.53145328     0.29840
C1114       C  0.95066418  0.67943382  0.53065524    -0.20980
C1115       C  0.95712294  0.70373787  0.49014048    -0.09030
C1116       C  0.93439309  0.69324595  0.44982261     0.29850
F1117       F  0.94049407  0.71597434  0.41009873    -0.19550
H1118       H  0.88631783  0.65305172  0.41951604     0.18210
H1119       H  0.96722796  0.68772076  0.56224455     0.18220
F1120       F  0.91279177  0.62481084  0.57169399    -0.19540
C1121       C  0.79456164  0.77391950  0.81526430    -0.20970
C1122       C  0.79678179  0.74510073  0.77792444    -0.09020
C1123       C  0.83214149  0.71616940  0.77774326     0.29840
C1124       C  0.86333314  0.71719722  0.81253746    -0.20980
C1125       C  0.85937674  0.74486975  0.84980019    -0.09030
C1126       C  0.82444847  0.77293312  0.85118757     0.29850
F1127       F  0.81933565  0.79974802  0.88706131    -0.19550
H1128       H  0.76829530  0.79658602  0.81733505     0.18210
H1129       H  0.89012773  0.69505625  0.81118877     0.18220
F1130       F  0.83691959  0.68557100  0.74574818    -0.19540
C1131       C  0.68380071  0.71319508  0.84911557    -0.20970
C1132       C  0.65026855  0.74271470  0.84611608    -0.09020
C1133       C  0.64887838  0.77057524  0.80808729     0.29840
C1134       C  0.68218970  0.77072424  0.77501434    -0.20980
C1135       C  0.71669077  0.74121463  0.77723174    -0.09030
C1136       C  0.71595259  0.71163501  0.81486593     0.29850
F1137       F  0.74747800  0.68194188  0.81950365    -0.19550
H1138       H  0.68487332  0.69092256  0.87790477     0.18210
H1139       H  0.68063184  0.79515462  0.74881435     0.18220
F1140       F  0.61622318  0.79914547  0.80399067    -0.19540
C1141       C  0.78372060  0.85052540  0.67972674    -0.20970
C1142       C  0.75264807  0.85035269  0.64478928    -0.09020
C1143       C  0.72291216  0.81694356  0.64302526     0.29840
C1144       C  0.72418594  0.78444824  0.67619494    -0.20980
C1145       C  0.75567428  0.78356695  0.71180097    -0.09030
C1146       C  0.78633350  0.81737727  0.71198240     0.29850
F1147       F  0.82064527  0.81847031  0.74090218    -0.19550
H1148       H  0.80752621  0.87573828  0.68083053     0.18210
H1149       H  0.70062137  0.75914478  0.67376700     0.18220
F1150       F  0.69219979  0.81598022  0.60959534    -0.19540
C1151       C  0.72948070  0.67049075  0.71552011    -0.20970
C1152       C  0.75896846  0.70480200  0.71141006    -0.09020
C1153       C  0.78798726  0.70465361  0.67278430     0.29840
C1154       C  0.78698575  0.67219195  0.64036317    -0.20980
C1155       C  0.75818263  0.63824125  0.64586698    -0.09030
C1156       C  0.72992807  0.63728284  0.68409406     0.29850
F1157       F  0.70118324  0.60505651  0.68999836    -0.19550
H1158       H  0.70505248  0.66872393  0.74236865     0.18210
H1159       H  0.80925349  0.67331603  0.61109137     0.18220
F1160       F  0.81759912  0.73604153  0.66632661    -0.19540
loop_ 
_geom_bond_atom_site_label_1 
_geom_bond_atom_site_label_2 
_geom_bond_distance 
_geom_bond_site_symmetry_2 
_ccdc_geom_bond_type 
C1          C252   1.561       .  S
C1          C265   1.566       .  S
C1          C275   1.567       .  S
C1          C282   1.562       .  S
O2            C4   1.287       .  A
O2         Zr304   2.438   1_545  S
O3            C4   1.290       .  A
O3          Zr40   2.440       .  S
C4          C225   1.473       .  S
O5            C7   1.289       .  A
O5          Zr17   2.443       .  S
O6            C7   1.287       .  A
O6          Zr41   2.422       .  S
C7          C272   1.472       .  S
O8           C10   1.289       .  A
O8         Zr307   2.447   1_545  S
O9           C10   1.285       .  A
O9          Zr40   2.416       .  S
C10         C285   1.472       .  S
O11          C13   1.288       .  A
O11         Zr14   2.445       .  S
O12          C13   1.288       .  A
O12         Zr41   2.426       .  S
C13         C235   1.476       .  S
Zr14        O292   2.438       .  S
Zr14         O15   2.434       .  S
Zr14         O16   2.435       .  S
Zr14         O21   2.368       .  S
Zr14         O44   2.372       .  S
Zr14        O310   2.376       .  S
Zr14        O336   2.372       .  S
O15         H348   0.990       .  S
O16          H61   0.990       .  S
O16         H347   0.990       .  S
Zr17        O298   2.447       .  S
Zr17         O19   2.435       .  S
Zr17        O308   2.435       .  S
Zr17         O21   2.372       .  S
Zr17         O47   2.375       .  S
Zr17        O310   2.371       .  S
Zr17        O335   2.370       .  S
O18        Zr307   2.435       .  S
O18         H349   0.990       .  S
O18         H352   0.990       .  S
O19         H342   0.990       .  S
O20         Zr40   2.383       .  S
O20        Zr304   2.376   1_545  S
O20        Zr307   2.371   1_545  S
O21         Zr41   2.384       .  S
O21          H48   0.966       .  S
O22          C24   1.282       .  A
O22         Zr34   2.415       .  S
O23          C24   1.289       .  A
O23         Zr41   2.428       .  S
C24         C192   1.464       .  S
O25          C27   1.287       .  A
O25        Zr327   2.439   1_545  S
O26          C27   1.289       .  A
O26         Zr40   2.437       .  S
C27         C242   1.471       .  S
O28          C30   1.288       .  A
O28         Zr37   2.446       .  S
O29          C30   1.289       .  A
O29         Zr41   2.430       .  S
C30         C212   1.480       .  S
O31          C33   1.282       .  A
O31        Zr324   2.416   1_545  S
O32          C33   1.288       .  A
O32         Zr40   2.420       .  S
C33         C205   1.472       .  S
Zr34        O321   2.416       .  S
Zr34         O36   2.434       .  S
Zr34        O325   2.436       .  S
Zr34         O42   2.368       .  S
Zr34         O44   2.371       .  S
Zr34        O333   2.371       .  S
Zr34        O336   2.365       .  S
O35        Zr324   2.436       .  S
O35         H345   0.990       .  S
O35         H350   0.990       .  S
O36          H56   0.990       .  S
Zr37        O315   2.439       .  S
Zr37         O38   2.434       .  S
Zr37         O39   2.435       .  S
Zr37         O42   2.369       .  S
Zr37         O47   2.372       .  S
Zr37        O333   2.377       .  S
Zr37        O335   2.370       .  S
O38         H344   0.990       .  S
O39          H53   0.990       .  S
O39          H63   0.990       .  S
Zr40         O43   2.379       .  S
Zr40         O45   2.383       .  S
Zr40         O46   2.381       .  S
Zr41         O42   2.380       .  S
Zr41         O44   2.376       .  S
Zr41         O47   2.381       .  S
O42          H50   0.966       .  S
O43        Zr324   2.371   1_545  S
O43        Zr327   2.377   1_545  S
O45        Zr307   2.370   1_545  S
O45        Zr327   2.370   1_545  S
O45          H49   0.966       .  S
O46        Zr304   2.372   1_545  S
O46        Zr324   2.365   1_545  S
O46          H51   0.966       .  S
H52         O309   0.990   1_545  S
H54         O328   0.990   1_545  S
H55         O325   0.990       .  S
H57         O306   0.990   1_545  S
H58         O305   0.990   1_545  S
H59         O308   0.990       .  S
H60         O325   0.990       .  S
H62         O308   0.990       .  S
C64         C215   1.502       .  S
C64         C245   1.490       .  S
C64         C645   1.371       .  D
C65         C222   1.495       .  S
C65         C232   1.493       .  S
C65         C644   1.371   1_455  D
C66         C172   1.549       .  S
C66         C185   1.554       .  S
C66         C195   1.545       .  S
C66         C202   1.549       .  S
C67         C142   1.500       .  S
C67         C452   1.498       .  S
C67          C68   1.370   1_556  D
C68         C152   1.494       .  S
C68         C422   1.498   1_554  S
O69          C71   1.285       .  A
O69         Zr81   2.427       .  S
O70          C71   1.288       .  A
O70        Zr107   2.427       .  S
C71         C262   1.468       .  S
O72          C74   1.288       .  A
O72        Zr664   2.446   1_554  S
O73          C74   1.289   1_556  A
O73        Zr108   2.441   1_556  S
C74         C155   1.477       .  S
O75          C77   1.288       .  A
O75         Zr84   2.438       .  S
O76          C77   1.291       .  A
O76        Zr107   2.448       .  S
C77         C145   1.479       .  S
O78          C80   1.285       .  A
O78        Zr661   2.424       .  S
O79          C80   1.289       .  A
O79        Zr108   2.432   1_556  S
C80         C255   1.471       .  S
Zr81        O658   2.424   1_455  S
Zr81         O82   2.434       .  S
Zr81        O663   2.436       .  S
Zr81         O87   2.369       .  S
Zr81        O113   2.368       .  S
Zr81        O668   2.369   1_455  S
Zr81        O691   2.368   1_455  S
O82         H125   0.990       .  S
O83        Zr661   2.436       .  S
O83         H128   0.990       .  S
O83         H704   0.990       .  S
Zr84        O652   2.446   1_456  S
Zr84         O85   2.436       .  S
Zr84         O86   2.435   1_556  S
Zr84         O87   2.372       .  S
Zr84        O112   2.372   1_556  S
Zr84        O668   2.370   1_455  S
Zr84        O694   2.370   1_456  S
O85         H129   0.990       .  S
O85         H706   0.990   1_455  S
O86         H119   0.990       .  S
O87        Zr107   2.386       .  S
O88        Zr108   2.388   1_556  S
O88        Zr661   2.369       .  S
O88        Zr664   2.370       .  S
O88         H115   0.966       .  S
O89          C91   1.287       .  A
O89        Zr681   2.433   1_556  S
O90          C91   1.291   1_554  A
O90        Zr108   2.450       .  S
C91         C135   1.480       .  S
O92          C94   1.281       .  A
O92        Zr104   2.406       .  S
O93          C94   1.290       .  A
O93        Zr107   2.433   1_554  S
C94         C182   1.474       .  S
O95          C97   1.280       .  A
O95        Zr684   2.402       .  S
O96          C97   1.289       .  A
O96        Zr108   2.434       .  S
C97         C175   1.461       .  S
O98         C100   1.288       .  A
O98        Zr101   2.439       .  S
O99         C100   1.290   1_556  A
O99        Zr107   2.442       .  S
C100        C165   1.479       .  S
Zr101       O669   2.433   1_454  S
Zr101       O102   2.436       .  S
Zr101       O103   2.434   1_554  S
Zr101       O110   2.367       .  S
Zr101       O113   2.365   1_554  S
Zr101       O689   2.369   1_455  S
Zr101       O691   2.369   1_454  S
O102        H127   0.990   1_455  S
O102        H702   0.990   1_455  S
O103        H703   0.990   1_455  S
Zr104       O675   2.402   1_455  S
Zr104       O105   2.434       .  S
Zr104       O106   2.435       .  S
Zr104       O110   2.365       .  S
Zr104       O112   2.365       .  S
Zr104       O689   2.367   1_455  S
Zr104       O694   2.367   1_455  S
O105        H121   0.990       .  S
O106        H130   0.990       .  S
O106        H700   0.990   1_455  S
Zr107       O110   2.380   1_556  S
Zr107       O112   2.386   1_556  S
Zr107       O113   2.387       .  S
Zr108       O109   2.388       .  S
Zr108       O111   2.384   1_554  S
Zr108       O114   2.382       .  S
O109       Zr681   2.369       .  S
O109       Zr684   2.367       .  S
O109        H117   0.966       .  S
O111       Zr661   2.368       .  S
O111       Zr681   2.369   1_556  S
O112        H116   0.966       .  S
O113        H118   0.966       .  S
O114       Zr664   2.370   1_554  S
O114       Zr684   2.367       .  S
H120        O686   0.990       .  S
H122        O682   0.990       .  S
H123        O683   0.990       .  S
H124        O663   0.990       .  S
H126        O665   0.990       .  S
C131        C132   1.409   1_554  A
C131        C136   1.408       .  A
C131        H138   1.083       .  S
C132        C358   1.498   1_546  S
C132        C133   1.407       .  A
C133        C134   1.394       .  A
C133        F140   1.357       .  S
C134        C135   1.402       .  A
C134        H139   1.084       .  S
C135        C136   1.407   1_556  A
C136        F137   1.357       .  S
C141        C142   1.408   1_554  A
C141        C146   1.406       .  A
C141        H148   1.083       .  S
C142        C143   1.406       .  A
C143        C144   1.397       .  A
C143        F150   1.358       .  S
C144        C145   1.403       .  A
C144        H149   1.084       .  S
C145        C146   1.407   1_556  A
C146        F147   1.357       .  S
C151        C152   1.404   1_556  A
C151        C156   1.402       .  A
C151        H158   1.083       .  S
C152        C153   1.406       .  A
C153        C154   1.400       .  A
C153        F160   1.357       .  S
C154        C155   1.402       .  A
C154        H159   1.083       .  S
C155        C156   1.405   1_554  A
C156        F157   1.354       .  S
C161        C162   1.404   1_554  A
C161        C166   1.396       .  A
C161        H168   1.083       .  S
C162        C357   1.498   1_545  S
C162        C163   1.411       .  A
C163        C164   1.405       .  A
C163        F170   1.357       .  S
C164        C165   1.405   1_556  A
C164        H169   1.083       .  S
C165        C166   1.405       .  A
C166        F167   1.358       .  S
C171        C172   1.418       .  A
C171        C176   1.388       .  A
C171        H178   1.083       .  S
C172        C173   1.415       .  A
C173        C174   1.396       .  A
C173        F180   1.355       .  S
C174        C175   1.403       .  A
C174        H179   1.084       .  S
C175        C176   1.395       .  A
C176        F177   1.358       .  S
C181        C182   1.408       .  A
C181        C186   1.398       .  A
C181        H188   1.083       .  S
C182        C183   1.397       .  A
C183        C184   1.388       .  A
C183        F190   1.358       .  S
C184        C185   1.421       .  A
C184        H189   1.081       .  S
C185        C186   1.412       .  A
C186        F187   1.355       .  S
C191        C192   1.394       .  A
C191        C196   1.387       .  A
C191        H198   1.084       .  S
C192        C193   1.406       .  A
C193        C194   1.400       .  A
C193        F200   1.357       .  S
C194        C195   1.410       .  A
C194        H199   1.080       .  S
C195        C196   1.420       .  A
C196        F197   1.356       .  S
C201        C202   1.410       .  A
C201        C206   1.398       .  A
C201        H208   1.082       .  S
C202        C203   1.424       .  A
C203        C204   1.386       .  A
C203        F210   1.357       .  S
C204        C205   1.395       .  A
C204        H209   1.084       .  S
C205        C206   1.408       .  A
C206        F207   1.357       .  S
C211        C212   1.407       .  A
C211        C216   1.405       .  A
C211        H218   1.083       .  S
C212        C213   1.402       .  A
C213        C214   1.394       .  A
C213        F220   1.358       .  S
C214        C215   1.409       .  A
C214        H219   1.082       .  S
C215        C216   1.410       .  A
C216        F217   1.356       .  S
C221        C222   1.405       .  A
C221        C226   1.401       .  A
C221        H228   1.083       .  S
C222        C223   1.409       .  A
C223        C224   1.398       .  A
C223        F230   1.358       .  S
C224        C225   1.400       .  A
C224        H229   1.084       .  S
C225        C226   1.407       .  A
C226        F227   1.358       .  S
C231        C232   1.406       .  A
C231        C236   1.393       .  A
C231        H238   1.084       .  S
C232        C233   1.408       .  A
C233        C234   1.405       .  A
C233        F240   1.357       .  S
C234        C235   1.407       .  A
C234        H239   1.083       .  S
C235        C236   1.403       .  A
C236        F237   1.358       .  S
C241        C242   1.401       .  A
C241        C246   1.399       .  A
C241        H248   1.083       .  S
C242        C243   1.405       .  A
C243        C244   1.401       .  A
C243        F250   1.357       .  S
C244        C245   1.404       .  A
C244        H249   1.083       .  S
C245        C246   1.406       .  A
C246        F247   1.357       .  S
C251        C252   1.420       .  A
C251        C256   1.393       .  A
C251        H258   1.083       .  S
C252        C253   1.423       .  A
C253        C254   1.397       .  A
C253        F260   1.352       .  S
C254        C255   1.399       .  A
C254        H259   1.084       .  S
C255        C256   1.396       .  A
C256        F257   1.354       .  S
C261        C262   1.396       .  A
C261        C266   1.394       .  A
C261        H268   1.084       .  S
C262        C263   1.400       .  A
C263        C264   1.395       .  A
C263        F270   1.358       .  S
C264        C265   1.417       .  A
C264        H269   1.076       .  S
C265        C266   1.425       .  A
C266        F267   1.358       .  S
C271        C272   1.396       .  A
C271        C276   1.397       .  A
C271        H278   1.084       .  S
C272        C273   1.400       .  A
C273        C274   1.397       .  A
C273        F280   1.358       .  S
C274        C275   1.419       .  A
C274        H279   1.083       .  S
C275        C276   1.426       .  A
C276        F277   1.353       .  S
C281        C282   1.418       .  A
C281        C286   1.395       .  A
C281        H288   1.076       .  S
C282        C283   1.423       .  A
C283        C284   1.397       .  A
C283        F290   1.358       .  S
C284        C285   1.399       .  A
C284        H289   1.084       .  S
C285        C286   1.399       .  A
C286        F287   1.358       .  S
C291        C542   1.561       .  S
C291        C555   1.566       .  S
C291        C565   1.567       .  S
C291        C572   1.562       .  S
O292        C294   1.287       .  A
O293        C294   1.290       .  A
O293       Zr330   2.440       .  S
C294        C515   1.473       .  S
O295        C297   1.289       .  A
O295       Zr307   2.443       .  S
O296        C297   1.287       .  A
O296       Zr331   2.422       .  S
C297        C562   1.472       .  S
O298        C300   1.289       .  A
O299        C300   1.285       .  A
O299       Zr330   2.416       .  S
C300        C575   1.472       .  S
O301        C303   1.288       .  A
O301       Zr304   2.445       .  S
O302        C303   1.288       .  A
O302       Zr331   2.426       .  S
C303        C525   1.476       .  S
Zr304       O305   2.434       .  S
Zr304       O306   2.435       .  S
Zr304       O311   2.368       .  S
Zr304       O334   2.372       .  S
O306        H351   0.990   1_565  S
Zr307       O309   2.435       .  S
Zr307       O311   2.372       .  S
Zr307       O337   2.375       .  S
O310       Zr330   2.383       .  S
O311       Zr331   2.384       .  S
O311        H338   0.966       .  S
O312        C314   1.282       .  A
O312       Zr324   2.415       .  S
O313        C314   1.289       .  A
O313       Zr331   2.428       .  S
C314        C482   1.464       .  S
O315        C317   1.287       .  A
O316        C317   1.289       .  A
O316       Zr330   2.437       .  S
C317        C532   1.471       .  S
O318        C320   1.288       .  A
O318       Zr327   2.446       .  S
O319        C320   1.289       .  A
O319       Zr331   2.430       .  S
C320        C502   1.480       .  S
O321        C323   1.282       .  A
O322        C323   1.288       .  A
O322       Zr330   2.420       .  S
C323        C495   1.472       .  S
Zr324       O326   2.434   1_565  S
Zr324       O332   2.368       .  S
Zr324       O334   2.371       .  S
O326        H346   0.990   1_545  S
Zr327       O328   2.434       .  S
Zr327       O329   2.435       .  S
Zr327       O332   2.369       .  S
Zr327       O337   2.372       .  S
O329        H343   0.990       .  S
O329        H353   0.990       .  S
Zr330       O333   2.379       .  S
Zr330       O335   2.383       .  S
Zr330       O336   2.381       .  S
Zr331       O332   2.380       .  S
Zr331       O334   2.376       .  S
Zr331       O337   2.381       .  S
O332        H340   0.966       .  S
O335        H339   0.966       .  S
O336        H341   0.966       .  S
C354        C505   1.502       .  S
C354        C535   1.490       .  S
C354        C935   1.371       .  D
C355        C512   1.495       .  S
C355        C522   1.493       .  S
C355        C934   1.371   1_455  D
C356        C462   1.549       .  S
C356        C475   1.554       .  S
C356        C485   1.545       .  S
C356        C492   1.549       .  S
C357        C432   1.500       .  S
C357        C358   1.370   1_556  D
C358        C442   1.494       .  S
O359        C361   1.285       .  A
O359       Zr371   2.428       .  S
O360        C361   1.288       .  A
O360       Zr397   2.427       .  S
C361        C552   1.468       .  S
O362        C364   1.288       .  A
O362       Zr954   2.446   1_554  S
O363        C364   1.289   1_556  A
O363       Zr398   2.441   1_556  S
C364        C445   1.477       .  S
O365        C367   1.288       .  A
O365       Zr374   2.438       .  S
O366        C367   1.291       .  A
O366       Zr397   2.448       .  S
C367        C435   1.479       .  S
O368        C370   1.285       .  A
O368       Zr951   2.424       .  S
O369        C370   1.289       .  A
O369       Zr398   2.432   1_556  S
C370        C545   1.471       .  S
Zr371       O948   2.424   1_455  S
Zr371       O372   2.434       .  S
Zr371       O953   2.436       .  S
Zr371       O377   2.369       .  S
Zr371       O958   2.369   1_455  S
Zr371       O981   2.368   1_455  S
Zr371       O403   2.368       .  S
O372        H415   0.990       .  S
O373       Zr951   2.436       .  S
O373        H994   0.990       .  S
O373        H418   0.990       .  S
Zr374       O942   2.446   1_456  S
Zr374       O375   2.436       .  S
Zr374       O376   2.435   1_556  S
Zr374       O958   2.369   1_455  S
Zr374       O377   2.372       .  S
Zr374       O402   2.372   1_556  S
Zr374       O984   2.370   1_456  S
O375        H996   0.990   1_455  S
O375        H419   0.990       .  S
O376        H409   0.990       .  S
O377       Zr397   2.386       .  S
O378       Zr951   2.369       .  S
O378       Zr954   2.369       .  S
O378       Zr398   2.389   1_556  S
O378        H405   0.966       .  S
O379        C381   1.287       .  A
O379       Zr971   2.433   1_556  S
O380        C381   1.291   1_554  A
O380       Zr398   2.450       .  S
C381        C425   1.480       .  S
O382        C384   1.281       .  A
O382       Zr394   2.406       .  S
O383        C384   1.290       .  A
O383       Zr397   2.433   1_554  S
C384        C472   1.474       .  S
O385        C387   1.280       .  A
O385       Zr974   2.402       .  S
O386        C387   1.289       .  A
O386       Zr398   2.434       .  S
C387        C465   1.461       .  S
O388        C390   1.288       .  A
O388       Zr391   2.439       .  S
O389        C390   1.290   1_556  A
O389       Zr397   2.442       .  S
C390        C455   1.479       .  S
Zr391       O959   2.433   1_454  S
Zr391       O392   2.436       .  S
Zr391       O393   2.434   1_554  S
Zr391       O979   2.369   1_455  S
Zr391       O400   2.367       .  S
Zr391       O403   2.365   1_554  S
Zr391       O981   2.369   1_454  S
O392        H992   0.990   1_455  S
O392        H417   0.990   1_455  S
O393        H993   0.990   1_455  S
Zr394       O965   2.402   1_455  S
Zr394       O395   2.434       .  S
Zr394       O396   2.435       .  S
Zr394       O400   2.365       .  S
Zr394       O979   2.367   1_455  S
Zr394       O984   2.367   1_455  S
Zr394       O402   2.365       .  S
O395        H411   0.990       .  S
O396        H990   0.990   1_455  S
O396        H420   0.990       .  S
Zr397       O400   2.380   1_556  S
Zr397       O402   2.386   1_556  S
Zr397       O403   2.387       .  S
Zr398       O399   2.388       .  S
Zr398       O401   2.384   1_554  S
Zr398       O404   2.382       .  S
O399       Zr971   2.369       .  S
O399       Zr974   2.367       .  S
O399        H407   0.966       .  S
O401       Zr951   2.368       .  S
O401       Zr971   2.369   1_556  S
O402        H406   0.966       .  S
O403        H408   0.966       .  S
O404       Zr954   2.370   1_554  S
O404       Zr974   2.367       .  S
H410        O976   0.990       .  S
H412        O972   0.990       .  S
H413        O973   0.990       .  S
H414        O953   0.990       .  S
H416        O955   0.990       .  S
C421        C422   1.409   1_554  A
C421        C426   1.408       .  A
C421        H428   1.083       .  S
C422        C423   1.407       .  A
C423        C424   1.394       .  A
C423        F430   1.357       .  S
C424        C425   1.402       .  A
C424        H429   1.084       .  S
C425        C426   1.407   1_556  A
C426        F427   1.357       .  S
C431        C432   1.408   1_554  A
C431        C436   1.406       .  A
C431        H438   1.083       .  S
C432        C433   1.406       .  A
C433        C434   1.397       .  A
C433        F440   1.358       .  S
C434        C435   1.403       .  A
C434        H439   1.084       .  S
C435        C436   1.407   1_556  A
C436        F437   1.357       .  S
C441        C442   1.404   1_556  A
C441        C446   1.402       .  A
C441        H448   1.083       .  S
C442        C443   1.406       .  A
C443        C444   1.400       .  A
C443        F450   1.357       .  S
C444        C445   1.402       .  A
C444        H449   1.083       .  S
C445        C446   1.405   1_554  A
C446        F447   1.353       .  S
C451        C452   1.404   1_554  A
C451        C456   1.396       .  A
C451        H458   1.083       .  S
C452        C453   1.411       .  A
C453        C454   1.405       .  A
C453        F460   1.357       .  S
C454        C455   1.405   1_556  A
C454        H459   1.083       .  S
C455        C456   1.405       .  A
C456        F457   1.358       .  S
C461        C462   1.418       .  A
C461        C466   1.388       .  A
C461        H468   1.083       .  S
C462        C463   1.415       .  A
C463        C464   1.396       .  A
C463        F470   1.355       .  S
C464        C465   1.403       .  A
C464        H469   1.084       .  S
C465        C466   1.395       .  A
C466        F467   1.358       .  S
C471        C472   1.408       .  A
C471        C476   1.398       .  A
C471        H478   1.083       .  S
C472        C473   1.397       .  A
C473        C474   1.388       .  A
C473        F480   1.358       .  S
C474        C475   1.421       .  A
C474        H479   1.081       .  S
C475        C476   1.412       .  A
C476        F477   1.355       .  S
C481        C482   1.394       .  A
C481        C486   1.387       .  A
C481        H488   1.084       .  S
C482        C483   1.406       .  A
C483        C484   1.400       .  A
C483        F490   1.357       .  S
C484        C485   1.410       .  A
C484        H489   1.080       .  S
C485        C486   1.420       .  A
C486        F487   1.356       .  S
C491        C492   1.410       .  A
C491        C496   1.398       .  A
C491        H498   1.082       .  S
C492        C493   1.424       .  A
C493        C494   1.386       .  A
C493        F500   1.357       .  S
C494        C495   1.395       .  A
C494        H499   1.084       .  S
C495        C496   1.408       .  A
C496        F497   1.357       .  S
C501        C502   1.407       .  A
C501        C506   1.405       .  A
C501        H508   1.083       .  S
C502        C503   1.402       .  A
C503        C504   1.394       .  A
C503        F510   1.358       .  S
C504        C505   1.409       .  A
C504        H509   1.082       .  S
C505        C506   1.410       .  A
C506        F507   1.356       .  S
C511        C512   1.405       .  A
C511        C516   1.401       .  A
C511        H518   1.083       .  S
C512        C513   1.409       .  A
C513        C514   1.398       .  A
C513        F520   1.358       .  S
C514        C515   1.400       .  A
C514        H519   1.084       .  S
C515        C516   1.407       .  A
C516        F517   1.358       .  S
C521        C522   1.406       .  A
C521        C526   1.393       .  A
C521        H528   1.084       .  S
C522        C523   1.408       .  A
C523        C524   1.405       .  A
C523        F530   1.357       .  S
C524        C525   1.407       .  A
C524        H529   1.083       .  S
C525        C526   1.403       .  A
C526        F527   1.358       .  S
C531        C532   1.401       .  A
C531        C536   1.399       .  A
C531        H538   1.083       .  S
C532        C533   1.405       .  A
C533        C534   1.401       .  A
C533        F540   1.357       .  S
C534        C535   1.404       .  A
C534        H539   1.083       .  S
C535        C536   1.406       .  A
C536        F537   1.357       .  S
C541        C542   1.420       .  A
C541        C546   1.393       .  A
C541        H548   1.083       .  S
C542        C543   1.423       .  A
C543        C544   1.397       .  A
C543        F550   1.352       .  S
C544        C545   1.399       .  A
C544        H549   1.084       .  S
C545        C546   1.396       .  A
C546        F547   1.354       .  S
C551        C552   1.396       .  A
C551        C556   1.394       .  A
C551        H558   1.084       .  S
C552        C553   1.400       .  A
C553        C554   1.395       .  A
C553        F560   1.358       .  S
C554        C555   1.417       .  A
C554        H559   1.076       .  S
C555        C556   1.425       .  A
C556        F557   1.358       .  S
C561        C562   1.396       .  A
C561        C566   1.397       .  A
C561        H568   1.084       .  S
C562        C563   1.400       .  A
C563        C564   1.397       .  A
C563        F570   1.358       .  S
C564        C565   1.419       .  A
C564        H569   1.083       .  S
C565        C566   1.426       .  A
C566        F567   1.353       .  S
C571        C572   1.418       .  A
C571        C576   1.395       .  A
C571        H578   1.076       .  S
C572        C573   1.423       .  A
C573        C574   1.397       .  A
C573        F580   1.358       .  S
C574        C575   1.399       .  A
C574        H579   1.084       .  S
C575        C576   1.399       .  A
C576        F577   1.358       .  S
C581        C832   1.561       .  S
C581        C845   1.566       .  S
C581        C855   1.567       .  S
C581        C862   1.562       .  S
O582        C584   1.287       .  A
O582       Zr884   2.438   1_545  S
O583        C584   1.290       .  A
O583       Zr620   2.440       .  S
C584        C805   1.473       .  S
O585        C587   1.289       .  A
O585       Zr597   2.443       .  S
O586        C587   1.287       .  A
O586       Zr621   2.422       .  S
C587        C852   1.472       .  S
O588        C590   1.289       .  A
O588       Zr887   2.447   1_545  S
O589        C590   1.285       .  A
O589       Zr620   2.416       .  S
C590        C865   1.472       .  S
O591        C593   1.288       .  A
O591       Zr594   2.445       .  S
O592        C593   1.288       .  A
O592       Zr621   2.426       .  S
C593        C815   1.476       .  S
Zr594       O872   2.438       .  S
Zr594       O595   2.434       .  S
Zr594       O596   2.435       .  S
Zr594       O890   2.376       .  S
Zr594       O601   2.368       .  S
Zr594       O624   2.372       .  S
Zr594       O916   2.372       .  S
O595        H928   0.990       .  S
O596        H927   0.990       .  S
O596        H641   0.990       .  S
Zr597       O878   2.447       .  S
Zr597       O888   2.435       .  S
Zr597       O599   2.435       .  S
Zr597       O601   2.372       .  S
Zr597       O890   2.371       .  S
Zr597       O915   2.370       .  S
Zr597       O627   2.375       .  S
O598       Zr887   2.435       .  S
O598        H929   0.990       .  S
O598        H932   0.990       .  S
O599        H922   0.990       .  S
O600       Zr884   2.376   1_545  S
O600       Zr887   2.371   1_545  S
O600       Zr620   2.383       .  S
O601       Zr621   2.384       .  S
O601        H628   0.966       .  S
O602        C604   1.282       .  A
O602       Zr614   2.415       .  S
O603        C604   1.289       .  A
O603       Zr621   2.428       .  S
C604        C772   1.464       .  S
O605        C607   1.287       .  A
O605       Zr907   2.439   1_545  S
O606        C607   1.289       .  A
O606       Zr620   2.437       .  S
C607        C822   1.471       .  S
O608        C610   1.288       .  A
O608       Zr617   2.446       .  S
O609        C610   1.289       .  A
O609       Zr621   2.430       .  S
C610        C792   1.480       .  S
O611        C613   1.282       .  A
O611       Zr904   2.416   1_545  S
O612        C613   1.288       .  A
O612       Zr620   2.420       .  S
C613        C785   1.472       .  S
Zr614       O901   2.416       .  S
Zr614       O905   2.436       .  S
Zr614       O616   2.434       .  S
Zr614       O622   2.368       .  S
Zr614       O913   2.371       .  S
Zr614       O916   2.365       .  S
Zr614       O624   2.371       .  S
O615       Zr904   2.436       .  S
O615        H925   0.990       .  S
O615        H930   0.990       .  S
O616        H636   0.990       .  S
Zr617       O895   2.439       .  S
Zr617       O618   2.434       .  S
Zr617       O619   2.435       .  S
Zr617       O913   2.377       .  S
Zr617       O622   2.369       .  S
Zr617       O627   2.372       .  S
Zr617       O915   2.370       .  S
O618        H924   0.990       .  S
O619        H633   0.990       .  S
O619        H643   0.990       .  S
Zr620       O623   2.379       .  S
Zr620       O625   2.383       .  S
Zr620       O626   2.381       .  S
Zr621       O622   2.380       .  S
Zr621       O624   2.376       .  S
Zr621       O627   2.381       .  S
O622        H630   0.966       .  S
O623       Zr904   2.371   1_545  S
O623       Zr907   2.377   1_545  S
O625       Zr887   2.370   1_545  S
O625       Zr907   2.370   1_545  S
O625        H629   0.966       .  S
O626       Zr884   2.372   1_545  S
O626       Zr904   2.365   1_545  S
O626        H631   0.966       .  S
H632        O889   0.990   1_545  S
H634        O908   0.990   1_545  S
H635        O905   0.990       .  S
H637        O886   0.990   1_545  S
H638        O885   0.990   1_545  S
H639        O888   0.990       .  S
H640        O905   0.990       .  S
H642        O888   0.990       .  S
C644        C795   1.502       .  S
C644        C825   1.490       .  S
C645        C802   1.495       .  S
C645        C812   1.493       .  S
C646        C752   1.549       .  S
C646        C765   1.554       .  S
C646        C775   1.545       .  S
C646        C782   1.549       .  S
C647        C722   1.500       .  S
C647       C1032   1.498       .  S
C647        C648   1.370   1_556  D
C648       C1002   1.498   1_554  S
C648        C732   1.494       .  S
O649        C651   1.285       .  A
O649       Zr661   2.427       .  S
O650        C651   1.288       .  A
O650       Zr687   2.427       .  S
C651        C842   1.468       .  S
O652        C654   1.288       .  A
O653        C654   1.289   1_556  A
O653       Zr688   2.441   1_556  S
C654        C735   1.477       .  S
O655        C657   1.288       .  A
O655       Zr664   2.438       .  S
O656        C657   1.291       .  A
O656       Zr687   2.448       .  S
C657        C725   1.479       .  S
O658        C660   1.285       .  A
O659        C660   1.289       .  A
O659       Zr688   2.432   1_556  S
C660        C835   1.471       .  S
Zr661       O662   2.434       .  S
Zr661       O667   2.369       .  S
Zr661       O693   2.368       .  S
O662        H705   0.990       .  S
O663        H708   0.990       .  S
Zr664       O665   2.436       .  S
Zr664       O666   2.435   1_556  S
Zr664       O667   2.372       .  S
Zr664       O692   2.372   1_556  S
O665        H709   0.990       .  S
O666        H699   0.990       .  S
O667       Zr687   2.386       .  S
O668       Zr688   2.388   1_556  S
O668        H695   0.966       .  S
O669        C671   1.287       .  A
O670        C671   1.291   1_554  A
O670       Zr688   2.450       .  S
C671        C715   1.480       .  S
O672        C674   1.281       .  A
O672       Zr684   2.406       .  S
O673        C674   1.290       .  A
O673       Zr687   2.433   1_554  S
C674        C762   1.474       .  S
O675        C677   1.280       .  A
O676        C677   1.289       .  A
O676       Zr688   2.434       .  S
C677        C755   1.461       .  S
O678        C680   1.288       .  A
O678       Zr681   2.439       .  S
O679        C680   1.290   1_556  A
O679       Zr687   2.442       .  S
C680        C745   1.479       .  S
Zr681       O682   2.436       .  S
Zr681       O683   2.434   1_554  S
Zr681       O690   2.367       .  S
Zr681       O693   2.365   1_554  S
O682        H707   0.990       .  S
Zr684       O685   2.434       .  S
Zr684       O686   2.435       .  S
Zr684       O690   2.365       .  S
Zr684       O692   2.365       .  S
O685        H701   0.990       .  S
O686        H710   0.990       .  S
Zr687       O690   2.380   1_556  S
Zr687       O692   2.386   1_556  S
Zr687       O693   2.387       .  S
Zr688       O689   2.388       .  S
Zr688       O691   2.384   1_554  S
Zr688       O694   2.382       .  S
O689        H697   0.966       .  S
O692        H696   0.966       .  S
O693        H698   0.966       .  S
C711        C712   1.409   1_554  A
C711        C716   1.408       .  A
C711        H718   1.083       .  S
C712        C938   1.498   1_546  S
C712        C713   1.407       .  A
C713        C714   1.394       .  A
C713        F720   1.357       .  S
C714        C715   1.402       .  A
C714        H719   1.084       .  S
C715        C716   1.407   1_556  A
C716        F717   1.357       .  S
C721        C722   1.408   1_554  A
C721        C726   1.406       .  A
C721        H728   1.083       .  S
C722        C723   1.406       .  A
C723        C724   1.397       .  A
C723        F730   1.358       .  S
C724        C725   1.403       .  A
C724        H729   1.084       .  S
C725        C726   1.407   1_556  A
C726        F727   1.357       .  S
C731        C732   1.404   1_556  A
C731        C736   1.402       .  A
C731        H738   1.083       .  S
C732        C733   1.406       .  A
C733        C734   1.400       .  A
C733        F740   1.357       .  S
C734        C735   1.402       .  A
C734        H739   1.083       .  S
C735        C736   1.405   1_554  A
C736        F737   1.354       .  S
C741        C742   1.404   1_554  A
C741        C746   1.396       .  A
C741        H748   1.083       .  S
C742        C937   1.498   1_545  S
C742        C743   1.411       .  A
C743        C744   1.405       .  A
C743        F750   1.357       .  S
C744        C745   1.405   1_556  A
C744        H749   1.083       .  S
C745        C746   1.405       .  A
C746        F747   1.358       .  S
C751        C752   1.418       .  A
C751        C756   1.388       .  A
C751        H758   1.083       .  S
C752        C753   1.415       .  A
C753        C754   1.396       .  A
C753        F760   1.355       .  S
C754        C755   1.403       .  A
C754        H759   1.084       .  S
C755        C756   1.395       .  A
C756        F757   1.358       .  S
C761        C762   1.408       .  A
C761        C766   1.398       .  A
C761        H768   1.083       .  S
C762        C763   1.397       .  A
C763        C764   1.388       .  A
C763        F770   1.358       .  S
C764        C765   1.421       .  A
C764        H769   1.081       .  S
C765        C766   1.412       .  A
C766        F767   1.355       .  S
C771        C772   1.394       .  A
C771        C776   1.387       .  A
C771        H778   1.084       .  S
C772        C773   1.406       .  A
C773        C774   1.400       .  A
C773        F780   1.357       .  S
C774        C775   1.410       .  A
C774        H779   1.080       .  S
C775        C776   1.420       .  A
C776        F777   1.356       .  S
C781        C782   1.410       .  A
C781        C786   1.398       .  A
C781        H788   1.082       .  S
C782        C783   1.424       .  A
C783        C784   1.386       .  A
C783        F790   1.357       .  S
C784        C785   1.395       .  A
C784        H789   1.084       .  S
C785        C786   1.408       .  A
C786        F787   1.357       .  S
C791        C792   1.407       .  A
C791        C796   1.405       .  A
C791        H798   1.083       .  S
C792        C793   1.402       .  A
C793        C794   1.394       .  A
C793        F800   1.358       .  S
C794        C795   1.409       .  A
C794        H799   1.082       .  S
C795        C796   1.410       .  A
C796        F797   1.356       .  S
C801        C802   1.405       .  A
C801        C806   1.401       .  A
C801        H808   1.083       .  S
C802        C803   1.409       .  A
C803        C804   1.398       .  A
C803        F810   1.358       .  S
C804        C805   1.400       .  A
C804        H809   1.084       .  S
C805        C806   1.407       .  A
C806        F807   1.358       .  S
C811        C812   1.406       .  A
C811        C816   1.393       .  A
C811        H818   1.084       .  S
C812        C813   1.408       .  A
C813        C814   1.405       .  A
C813        F820   1.357       .  S
C814        C815   1.407       .  A
C814        H819   1.083       .  S
C815        C816   1.403       .  A
C816        F817   1.358       .  S
C821        C822   1.401       .  A
C821        C826   1.399       .  A
C821        H828   1.083       .  S
C822        C823   1.405       .  A
C823        C824   1.401       .  A
C823        F830   1.357       .  S
C824        C825   1.404       .  A
C824        H829   1.083       .  S
C825        C826   1.406       .  A
C826        F827   1.357       .  S
C831        C832   1.420       .  A
C831        C836   1.393       .  A
C831        H838   1.083       .  S
C832        C833   1.423       .  A
C833        C834   1.397       .  A
C833        F840   1.352       .  S
C834        C835   1.399       .  A
C834        H839   1.084       .  S
C835        C836   1.396       .  A
C836        F837   1.354       .  S
C841        C842   1.396       .  A
C841        C846   1.394       .  A
C841        H848   1.084       .  S
C842        C843   1.400       .  A
C843        C844   1.395       .  A
C843        F850   1.358       .  S
C844        C845   1.417       .  A
C844        H849   1.076       .  S
C845        C846   1.425       .  A
C846        F847   1.358       .  S
C851        C852   1.396       .  A
C851        C856   1.397       .  A
C851        H858   1.084       .  S
C852        C853   1.400       .  A
C853        C854   1.397       .  A
C853        F860   1.358       .  S
C854        C855   1.419       .  A
C854        H859   1.083       .  S
C855        C856   1.426       .  A
C856        F857   1.353       .  S
C861        C862   1.418       .  A
C861        C866   1.395       .  A
C861        H868   1.076       .  S
C862        C863   1.423       .  A
C863        C864   1.397       .  A
C863        F870   1.358       .  S
C864        C865   1.399       .  A
C864        H869   1.084       .  S
C865        C866   1.399       .  A
C866        F867   1.358       .  S
C871       C1122   1.561       .  S
C871       C1135   1.566       .  S
C871       C1145   1.567       .  S
C871       C1152   1.562       .  S
O872        C874   1.287       .  A
O873        C874   1.290       .  A
O873       Zr910   2.440       .  S
C874       C1095   1.473       .  S
O875        C877   1.289       .  A
O875       Zr887   2.443       .  S
O876        C877   1.287       .  A
O876       Zr911   2.422       .  S
C877       C1142   1.472       .  S
O878        C880   1.289       .  A
O879        C880   1.285       .  A
O879       Zr910   2.416       .  S
C880       C1155   1.472       .  S
O881        C883   1.288       .  A
O881       Zr884   2.445       .  S
O882        C883   1.288       .  A
O882       Zr911   2.426       .  S
C883       C1105   1.476       .  S
Zr884       O885   2.434       .  S
Zr884       O886   2.435       .  S
Zr884       O891   2.368       .  S
Zr884       O914   2.372       .  S
O886        H931   0.990   1_565  S
Zr887       O889   2.435       .  S
Zr887       O891   2.372       .  S
Zr887       O917   2.375       .  S
O890       Zr910   2.383       .  S
O891       Zr911   2.384       .  S
O891        H918   0.966       .  S
O892        C894   1.282       .  A
O892       Zr904   2.415       .  S
O893        C894   1.289       .  A
O893       Zr911   2.428       .  S
C894       C1062   1.464       .  S
O895        C897   1.287       .  A
O896        C897   1.289       .  A
O896       Zr910   2.437       .  S
C897       C1112   1.471       .  S
O898        C900   1.288       .  A
O898       Zr907   2.446       .  S
O899        C900   1.289       .  A
O899       Zr911   2.430       .  S
C900       C1082   1.480       .  S
O901        C903   1.282       .  A
O902        C903   1.288       .  A
O902       Zr910   2.420       .  S
C903       C1075   1.472       .  S
Zr904       O906   2.434   1_565  S
Zr904       O912   2.368       .  S
Zr904       O914   2.371       .  S
O906        H926   0.990   1_545  S
Zr907       O908   2.434       .  S
Zr907       O909   2.435       .  S
Zr907       O912   2.369       .  S
Zr907       O917   2.372       .  S
O909        H923   0.990       .  S
O909        H933   0.990       .  S
Zr910       O913   2.379       .  S
Zr910       O915   2.383       .  S
Zr910       O916   2.381       .  S
Zr911       O912   2.380       .  S
Zr911       O914   2.376       .  S
Zr911       O917   2.381       .  S
O912        H920   0.966       .  S
O915        H919   0.966       .  S
O916        H921   0.966       .  S
C934       C1085   1.502       .  S
C934       C1115   1.490       .  S
C935       C1092   1.495       .  S
C935       C1102   1.493       .  S
C936       C1042   1.549       .  S
C936       C1055   1.554       .  S
C936       C1065   1.545       .  S
C936       C1072   1.549       .  S
C937       C1012   1.500       .  S
C937        C938   1.370   1_556  D
C938       C1022   1.494       .  S
O939        C941   1.285       .  A
O939       Zr951   2.428       .  S
O940        C941   1.288       .  A
O940       Zr977   2.427       .  S
C941       C1132   1.468       .  S
O942        C944   1.288       .  A
O943        C944   1.289   1_556  A
O943       Zr978   2.441   1_556  S
C944       C1025   1.477       .  S
O945        C947   1.288       .  A
O945       Zr954   2.438       .  S
O946        C947   1.291       .  A
O946       Zr977   2.448       .  S
C947       C1015   1.479       .  S
O948        C950   1.285       .  A
O949        C950   1.289       .  A
O949       Zr978   2.432   1_556  S
C950       C1125   1.471       .  S
Zr951       O952   2.434       .  S
Zr951       O957   2.369       .  S
Zr951       O983   2.368       .  S
O952        H995   0.990       .  S
O953        H998   0.990       .  S
Zr954       O955   2.436       .  S
Zr954       O956   2.435   1_556  S
Zr954       O957   2.372       .  S
Zr954       O982   2.372   1_556  S
O955        H999   0.990       .  S
O956        H989   0.990       .  S
O957       Zr977   2.386       .  S
O958       Zr978   2.389   1_556  S
O958        H985   0.966       .  S
O959        C961   1.287       .  A
O960        C961   1.291   1_554  A
O960       Zr978   2.450       .  S
C961       C1005   1.480       .  S
O962        C964   1.281       .  A
O962       Zr974   2.406       .  S
O963        C964   1.290       .  A
O963       Zr977   2.433   1_554  S
C964       C1052   1.474       .  S
O965        C967   1.280       .  A
O966        C967   1.289       .  A
O966       Zr978   2.434       .  S
C967       C1045   1.461       .  S
O968        C970   1.288       .  A
O968       Zr971   2.439       .  S
O969        C970   1.290   1_556  A
O969       Zr977   2.442       .  S
C970       C1035   1.479       .  S
Zr971       O972   2.436       .  S
Zr971       O973   2.434   1_554  S
Zr971       O980   2.367       .  S
Zr971       O983   2.365   1_554  S
O972        H997   0.990       .  S
Zr974       O975   2.434       .  S
Zr974       O976   2.435       .  S
Zr974       O980   2.365       .  S
Zr974       O982   2.365       .  S
O975        H991   0.990       .  S
O976       H1000   0.990       .  S
Zr977       O980   2.380   1_556  S
Zr977       O982   2.386   1_556  S
Zr977       O983   2.387       .  S
Zr978       O979   2.388       .  S
Zr978       O981   2.384   1_554  S
Zr978       O984   2.382       .  S
O979        H987   0.966       .  S
O982        H986   0.966       .  S
O983        H988   0.966       .  S
C1001      C1002   1.409   1_554  A
C1001      C1006   1.408       .  A
C1001      H1008   1.083       .  S
C1002      C1003   1.407       .  A
C1003      C1004   1.394       .  A
C1003      F1010   1.357       .  S
C1004      C1005   1.402       .  A
C1004      H1009   1.084       .  S
C1005      C1006   1.407   1_556  A
C1006      F1007   1.357       .  S
C1011      C1012   1.408   1_554  A
C1011      C1016   1.406       .  A
C1011      H1018   1.083       .  S
C1012      C1013   1.406       .  A
C1013      C1014   1.397       .  A
C1013      F1020   1.358       .  S
C1014      C1015   1.403       .  A
C1014      H1019   1.084       .  S
C1015      C1016   1.407   1_556  A
C1016      F1017   1.357       .  S
C1021      C1022   1.404   1_556  A
C1021      C1026   1.402       .  A
C1021      H1028   1.083       .  S
C1022      C1023   1.406       .  A
C1023      C1024   1.400       .  A
C1023      F1030   1.357       .  S
C1024      C1025   1.402       .  A
C1024      H1029   1.083       .  S
C1025      C1026   1.405   1_554  A
C1026      F1027   1.353       .  S
C1031      C1032   1.404   1_554  A
C1031      C1036   1.396       .  A
C1031      H1038   1.083       .  S
C1032      C1033   1.411       .  A
C1033      C1034   1.405       .  A
C1033      F1040   1.357       .  S
C1034      C1035   1.405   1_556  A
C1034      H1039   1.083       .  S
C1035      C1036   1.405       .  A
C1036      F1037   1.358       .  S
C1041      C1042   1.418       .  A
C1041      C1046   1.388       .  A
C1041      H1048   1.083       .  S
C1042      C1043   1.415       .  A
C1043      C1044   1.396       .  A
C1043      F1050   1.355       .  S
C1044      C1045   1.403       .  A
C1044      H1049   1.084       .  S
C1045      C1046   1.395       .  A
C1046      F1047   1.358       .  S
C1051      C1052   1.408       .  A
C1051      C1056   1.398       .  A
C1051      H1058   1.083       .  S
C1052      C1053   1.397       .  A
C1053      C1054   1.388       .  A
C1053      F1060   1.358       .  S
C1054      C1055   1.421       .  A
C1054      H1059   1.081       .  S
C1055      C1056   1.412       .  A
C1056      F1057   1.355       .  S
C1061      C1062   1.394       .  A
C1061      C1066   1.387       .  A
C1061      H1068   1.084       .  S
C1062      C1063   1.406       .  A
C1063      C1064   1.400       .  A
C1063      F1070   1.357       .  S
C1064      C1065   1.410       .  A
C1064      H1069   1.080       .  S
C1065      C1066   1.420       .  A
C1066      F1067   1.356       .  S
C1071      C1072   1.410       .  A
C1071      C1076   1.398       .  A
C1071      H1078   1.082       .  S
C1072      C1073   1.424       .  A
C1073      C1074   1.386       .  A
C1073      F1080   1.357       .  S
C1074      C1075   1.395       .  A
C1074      H1079   1.084       .  S
C1075      C1076   1.408       .  A
C1076      F1077   1.357       .  S
C1081      C1082   1.407       .  A
C1081      C1086   1.405       .  A
C1081      H1088   1.083       .  S
C1082      C1083   1.402       .  A
C1083      C1084   1.394       .  A
C1083      F1090   1.358       .  S
C1084      C1085   1.409       .  A
C1084      H1089   1.082       .  S
C1085      C1086   1.410       .  A
C1086      F1087   1.356       .  S
C1091      C1092   1.405       .  A
C1091      C1096   1.401       .  A
C1091      H1098   1.083       .  S
C1092      C1093   1.409       .  A
C1093      C1094   1.398       .  A
C1093      F1100   1.358       .  S
C1094      C1095   1.400       .  A
C1094      H1099   1.084       .  S
C1095      C1096   1.407       .  A
C1096      F1097   1.358       .  S
C1101      C1102   1.406       .  A
C1101      C1106   1.393       .  A
C1101      H1108   1.084       .  S
C1102      C1103   1.408       .  A
C1103      C1104   1.405       .  A
C1103      F1110   1.357       .  S
C1104      C1105   1.407       .  A
C1104      H1109   1.083       .  S
C1105      C1106   1.403       .  A
C1106      F1107   1.358       .  S
C1111      C1112   1.401       .  A
C1111      C1116   1.399       .  A
C1111      H1118   1.083       .  S
C1112      C1113   1.405       .  A
C1113      C1114   1.401       .  A
C1113      F1120   1.357       .  S
C1114      C1115   1.404       .  A
C1114      H1119   1.083       .  S
C1115      C1116   1.406       .  A
C1116      F1117   1.357       .  S
C1121      C1122   1.420       .  A
C1121      C1126   1.393       .  A
C1121      H1128   1.083       .  S
C1122      C1123   1.423       .  A
C1123      C1124   1.397       .  A
C1123      F1130   1.352       .  S
C1124      C1125   1.399       .  A
C1124      H1129   1.084       .  S
C1125      C1126   1.396       .  A
C1126      F1127   1.354       .  S
C1131      C1132   1.396       .  A
C1131      C1136   1.394       .  A
C1131      H1138   1.084       .  S
C1132      C1133   1.400       .  A
C1133      C1134   1.395       .  A
C1133      F1140   1.358       .  S
C1134      C1135   1.417       .  A
C1134      H1139   1.076       .  S
C1135      C1136   1.425       .  A
C1136      F1137   1.358       .  S
C1141      C1142   1.396       .  A
C1141      C1146   1.397       .  A
C1141      H1148   1.084       .  S
C1142      C1143   1.400       .  A
C1143      C1144   1.397       .  A
C1143      F1150   1.358       .  S
C1144      C1145   1.419       .  A
C1144      H1149   1.083       .  S
C1145      C1146   1.426       .  A
C1146      F1147   1.353       .  S
C1151      C1152   1.418       .  A
C1151      C1156   1.395       .  A
C1151      H1158   1.076       .  S
C1152      C1153   1.423       .  A
C1153      C1154   1.397       .  A
C1153      F1160   1.358       .  S
C1154      C1155   1.399       .  A
C1154      H1159   1.084       .  S
C1155      C1156   1.399       .  A
C1156      F1157   1.358       .  S
