geometry optimzed in LAMMPS
_audit_creation_date              2020-12-01 
_audit_creation_method            'lammps2cif' 
_symmetry_space_group_name_H-M    'P1' 
_symmetry_Int_Tables_number       1 
_symmetry_cell_setting            triclinic 
loop_ 
_symmetry_equiv_pos_as_xyz 
  x,y,z 
_cell_length_a                    92.77383501 
_cell_length_b                    92.55363282804933 
_cell_length_c                    28.932712324408712 
_cell_angle_alpha                 91.40501251451857 
_cell_angle_beta                  88.38670361747378 
_cell_angle_gamma                 123.27936342919583 
loop_ 
_atom_site_label 
_atom_site_type_symbol 
_atom_site_fract_x 
_atom_site_fract_y 
_atom_site_fract_z 
_atom_site_charge 
In1        In  0.50740468  0.92745372  0.94489324     1.36900
C2          C  0.51243826  0.95844520  0.95345755     0.77800
O3          O  0.51053406  0.93137783  0.86886170    -0.60600
O4          O  0.48573445  0.91187688  0.89480931    -0.51500
C5          C  0.52722947  0.91505062  0.93914216     0.70500
O6          O  0.53327439  0.93092753  0.93367324    -0.46400
C7          C  0.49534820  0.91815764  0.03049291     0.75200
O8          O  0.52470802  0.95623526  0.95586259    -0.58200
O9          O  0.48581459  0.91083716  0.99581409    -0.48300
O10         O  0.49783938  0.94487133  0.94640481    -0.54700
C11         C  0.49510090  0.91978511  0.85979299     0.85400
O12         O  0.51118875  0.90570674  0.94690318    -0.56500
O13         O  0.51083517  0.92962974  0.02064325    -0.59800
In14       In  0.53436996  0.10515453  0.03319323     1.36900
C15         C  0.52731186  0.07336724  0.01834220     0.77800
O16         O  0.53257180  0.10888325  0.95810647    -0.60600
O17         O  0.55761462  0.12127237  0.98577255    -0.51500
C18         C  0.51359342  0.11643309  0.04565203     0.70500
O19         O  0.50799124  0.10098409  0.03404587    -0.46400
C20         C  0.54646540  0.11154839  0.11940717     0.75200
O21         O  0.51564291  0.07631613  0.02538002    -0.58200
O22         O  0.55530733  0.12100737  0.08561271    -0.48300
O23         O  0.54244613  0.08665498  0.01922706    -0.54700
C24         C  0.54859145  0.11810664  0.95035238     0.85400
O25         O  0.52972141  0.12599761  0.05017675    -0.56500
O26         O  0.53183805  0.09880346  0.10820496    -0.59800
In27       In  0.59095006  0.11624899  0.53092971     1.36900
C28         C  0.56587489  0.08354332  0.52188641     0.77800
O29         O  0.58515580  0.10941139  0.60545657    -0.60600
O30         O  0.58572483  0.13146854  0.58383813    -0.51500
C31         C  0.62419924  0.12903271  0.54152829     0.70500
O32         O  0.61320856  0.11323472  0.53375145    -0.46400
C33         C  0.58795283  0.12503675  0.44575255     0.75200
O34         O  0.58145845  0.08835140  0.52472356    -0.58200
O35         O  0.58251807  0.12892271  0.48147305    -0.48300
O36         O  0.56321120  0.09551951  0.52362367    -0.54700
C37         C  0.58363611  0.12172970  0.61690459     0.85400
O38         O  0.61815588  0.13840490  0.54223443    -0.56500
O39         O  0.59588666  0.11797253  0.45464330    -0.59800
In40       In  0.45636453  0.92501295  0.44787989     1.36900
C41         C  0.47745405  0.95861375  0.46242364     0.77800
O42         O  0.44878845  0.91999766  0.52285246    -0.60600
O43         O  0.46677804  0.91444797  0.49759273    -0.51500
C44         C  0.42313958  0.90972116  0.42834147     0.70500
O45         O  0.43331063  0.92583190  0.43354097    -0.46400
C46         C  0.46682809  0.92002598  0.36567984     0.75200
O47         O  0.46131609  0.95119280  0.46201712    -0.58200
O48         O  0.46578451  0.91181418  0.40119219    -0.48300
O49         O  0.48280009  0.94888402  0.45424653    -0.54700
C50         C  0.45874692  0.91529136  0.53241879     0.85400
O51         O  0.42997512  0.90130616  0.43455767    -0.56500
O52         O  0.46286441  0.93091022  0.37302143    -0.59800
In53       In  0.49607623  0.58112608  0.48534068     1.36900
C54         C  0.50280364  0.55666211  0.48885336     0.77800
O55         O  0.50121954  0.58640176  0.56068516    -0.60600
O56         O  0.47524267  0.57341124  0.53920078    -0.51500
C57         C  0.51602582  0.61496918  0.47006066     0.70500
O58         O  0.52196517  0.60553202  0.47079620    -0.46400
C59         C  0.47943801  0.57189328  0.40622613     0.75200
O60         O  0.51461121  0.57256563  0.48726070    -0.58200
O61         O  0.47218204  0.57183253  0.44392417    -0.48300
O62         O  0.48776462  0.55351460  0.48909685    -0.54700
C63         C  0.48555847  0.57906999  0.57248324     0.85400
O64         O  0.50005002  0.60713366  0.47854348    -0.56500
O65         O  0.49497353  0.57666486  0.40962797    -0.59800
In66       In  0.54122914  0.44542191  0.52971760     1.36900
C67         C  0.53085300  0.46642078  0.51548705     0.77800
O68         O  0.54057617  0.45196067  0.60398964    -0.60600
O69         O  0.56397791  0.45583958  0.57698484    -0.51500
C70         C  0.52439882  0.41180094  0.54457881     0.70500
O71         O  0.51684627  0.41970243  0.54235608    -0.46400
C72         C  0.55273978  0.44793690  0.44344499     0.75200
O73         O  0.52034630  0.45067379  0.52536215    -0.58200
O74         O  0.56275333  0.45526607  0.47714342    -0.48300
O75         O  0.54651175  0.47134558  0.51449230    -0.54700
C76         C  0.55592114  0.45684230  0.61160156     0.85400
O77         O  0.54049626  0.42107127  0.53773906    -0.56500
O78         O  0.53698355  0.43867907  0.45485034    -0.59800
In79       In  0.59228759  0.49886116  0.03062512     1.36900
C80         C  0.57003397  0.50845075  0.02595432     0.77800
O81         O  0.59727058  0.50257553  0.95469551    -0.60600
O82         O  0.58217415  0.47684227  0.97898716    -0.51500
C83         C  0.62605995  0.51675454  0.04236441     0.70500
O84         O  0.61745716  0.52361635  0.04541017    -0.46400
C85         C  0.58503403  0.48454319  0.11340123     0.75200
O86         O  0.58610446  0.51892548  0.02060492    -0.58200
O87         O  0.58162728  0.47566332  0.07655771    -0.48300
O88         O  0.56558056  0.49325175  0.03481993    -0.54700
C89         C  0.58847783  0.48669814  0.94442838     0.85400
O90         O  0.61737729  0.50090432  0.03148200    -0.56500
O91         O  0.59172770  0.50045111  0.10712872    -0.59800
In92       In  0.44977778  0.53462385  0.98774253     1.36900
C93         C  0.47521626  0.52973047  0.99322312     0.77800
O94         O  0.45465532  0.53419879  0.91274508    -0.60600
O95         O  0.45802944  0.55727392  0.94140367    -0.51500
C96         C  0.41607332  0.51443436  0.97399897     0.70500
O97         O  0.42554241  0.50853203  0.97461396    -0.46400
C98         C  0.45105102  0.54498298  0.07428743     0.75200
O99         O  0.45961136  0.51727803  0.99007151    -0.58200
O100        O  0.45559595  0.55520704  0.04071084    -0.48300
O101        O  0.47760447  0.54453197  0.99487757    -0.54700
C102        C  0.45877135  0.54940400  0.90595074     0.85400
O103        O  0.42393554  0.53047914  0.98168855    -0.56500
O104        O  0.44520899  0.52947880  0.06304666    -0.59800
In105      In  0.92979552  0.44967584  0.03935085     1.36900
C106        C  0.96312624  0.47435058  0.02803880     0.77800
O107        O  0.92753530  0.44426165  0.96305283    -0.60600
O108        O  0.91695707  0.45792072  0.99059202    -0.51500
C109        C  0.91500554  0.41616722  0.05588168     0.70500
O110        O  0.93093238  0.42625495  0.04729466    -0.46400
C111        C  0.92388860  0.45761006  0.12389174     0.75200
O112        O  0.95773910  0.45856075  0.03129842    -0.58200
O113        O  0.91564328  0.45721578  0.08926760    -0.48300
O114        O  0.95143016  0.47734121  0.03168431    -0.54700
C115        C  0.92049651  0.45230695  0.95471071     0.85400
O116        O  0.90645202  0.42299492  0.05261528    -0.56500
O117        O  0.93523248  0.45444141  0.11446974    -0.59800
In118      In  0.12139754  0.59207455  0.95540099     1.36900
C119        C  0.08829209  0.56771164  0.96974927     0.77800
O120        O  0.11544029  0.58583400  0.88092543    -0.60600
O121        O  0.13838256  0.58864853  0.90416829    -0.51500
C122        C  0.13431769  0.62558469  0.94533939     0.70500
O123        O  0.11851943  0.61405342  0.94089154    -0.46400
C124        C  0.13010597  0.58734897  0.03814514     0.75200
O125        O  0.09422460  0.58361369  0.97466156    -0.58200
O126        O  0.13297293  0.58153181  0.00147890    -0.48300
O127        O  0.09913137  0.56436420  0.95551726    -0.54700
C128        C  0.12842294  0.58528699  0.87083034     0.85400
O129        O  0.14352041  0.61997161  0.95550460    -0.56500
O130        O  0.12403441  0.59638966  0.03147845    -0.59800
In131      In  0.11721955  0.54028058  0.45481121     1.36900
C132        C  0.08537345  0.53353600  0.46316599     0.77800
O133        O  0.11749210  0.53920225  0.53166752    -0.60600
O134        O  0.13350453  0.56377943  0.50038783    -0.51500
C135        C  0.13052796  0.52100104  0.45127794     0.70500
O136        O  0.11442495  0.51439231  0.45306201    -0.46400
C137        C  0.12472582  0.55206025  0.36847529     0.75200
O138        O  0.08838441  0.52177628  0.46499343    -0.58200
O139        O  0.13217143  0.56167524  0.40320542    -0.48300
O140        O  0.09861944  0.54839258  0.45637389    -0.54700
C141        C  0.12791396  0.55524137  0.53737722     0.85400
O142        O  0.13943698  0.53728617  0.45112692    -0.56500
O143        O  0.11366209  0.53648940  0.37843858    -0.59800
In144      In  0.93521432  0.50371215  0.54116249     1.36900
C145        C  0.96709175  0.51152852  0.52411224     0.77800
O146        O  0.94219409  0.50521723  0.61511573    -0.60600
O147        O  0.91921876  0.48244143  0.59319683    -0.51500
C148        C  0.92273454  0.52368389  0.55139234     0.70500
O149        O  0.93862624  0.52989053  0.54513491    -0.46400
C150        C  0.92404384  0.48896950  0.45847715     0.75200
O151        O  0.96401649  0.52301329  0.53364798    -0.58200
O152        O  0.91984878  0.48021615  0.49501615    -0.48300
O153        O  0.95401991  0.49625357  0.52504144    -0.54700
C154        C  0.92940324  0.49053793  0.62609616     0.85400
O155        O  0.91342091  0.50739958  0.55231268    -0.56500
O156        O  0.93274138  0.50510502  0.46509151    -0.59800
In157      In  0.26525355  0.83720963  0.33452678     1.36900
C158        C  0.24179323  0.84482077  0.32757992     0.77800
O159        O  0.26936819  0.84067195  0.25821319    -0.60600
O160        O  0.25541368  0.81501060  0.28378547    -0.51500
C161        C  0.29910562  0.85593679  0.34231163     0.70500
O162        O  0.29051045  0.86277010  0.33997512    -0.46400
C163        C  0.25823996  0.82389615  0.41917128     0.75200
O164        O  0.25752726  0.85639572  0.33385766    -0.58200
O165        O  0.25798112  0.81553139  0.38363105    -0.48300
O166        O  0.23812017  0.82951992  0.32697472    -0.54700
C167        C  0.26085158  0.82470871  0.24882196     0.85400
O168        O  0.29046265  0.83971789  0.33768417    -0.56500
O169        O  0.26199080  0.83890161  0.41085203    -0.59800
In170      In  0.11915832  0.86764909  0.29998735     1.36900
C171        C  0.14395385  0.86170331  0.30397145     0.77800
O172        O  0.12003264  0.86531007  0.22365490    -0.60600
O173        O  0.12891049  0.89019488  0.25248167    -0.51500
C174        C  0.08523723  0.84999258  0.29292301     0.70500
O175        O  0.09334106  0.84255711  0.29260668    -0.46400
C176        C  0.12196953  0.87831884  0.38665474     0.75200
O177        O  0.12818126  0.84952151  0.30216281    -0.58200
O178        O  0.12628833  0.88855113  0.35315237    -0.48300
O179        O  0.14684220  0.87668594  0.30231720    -0.54700
C180        C  0.12628201  0.88109713  0.21639445     0.85400
O181        O  0.09456400  0.86622295  0.29727734    -0.56500
O182        O  0.11561060  0.86271519  0.37545046    -0.59800
In183      In  0.21259738  0.78413698  0.83676124     1.36900
C184        C  0.20111974  0.80469347  0.82626200     0.77800
O185        O  0.21461420  0.79283283  0.91032554    -0.60600
O186        O  0.23521883  0.79145696  0.88212419    -0.51500
C187        C  0.19394039  0.75024863  0.85325115     0.70500
O188        O  0.18766426  0.75938035  0.85610251    -0.46400
C189        C  0.22553716  0.78844413  0.75107570     0.75200
O190        O  0.19113358  0.78839614  0.82587731    -0.58200
O191        O  0.23505203  0.79552126  0.78571343    -0.48300
O192        O  0.21676995  0.81024113  0.83205213    -0.54700
C193        C  0.22896003  0.79480977  0.91689341     0.85400
O194        O  0.20968166  0.75850771  0.84180756    -0.56500
O195        O  0.20970324  0.77868394  0.76088652    -0.59800
In196      In  0.16444268  0.91714635  0.79442093     1.36900
C197        C  0.17000243  0.89194674  0.78670733     0.77800
O198        O  0.16976036  0.91750830  0.86887757    -0.60600
O199        O  0.14451859  0.91034599  0.85084512    -0.51500
C200        C  0.18463846  0.95122659  0.79275650     0.70500
O201        O  0.19042593  0.94177951  0.78508926    -0.46400
C202        C  0.14921968  0.91321040  0.71476767     0.75200
O203        O  0.18216080  0.90773426  0.78624279    -0.58200
O204        O  0.14073893  0.90830966  0.75250460    -0.48300
O205        O  0.15511451  0.88918480  0.79035564    -0.54700
C206        C  0.15461074  0.91221104  0.88236828     0.85400
O207        O  0.16876416  0.94308173  0.80272959    -0.56500
O208        O  0.16516765  0.91982132  0.71831631    -0.59800
In209      In  0.87493328  0.77646076  0.71209738     1.36900
C210        C  0.86770613  0.74473690  0.69749779     0.77800
O211        O  0.87204379  0.77610551  0.63576224    -0.60600
O212        O  0.89735299  0.79188980  0.66249911    -0.51500
C213        C  0.85485078  0.78875193  0.71993183     0.70500
O214        O  0.84900204  0.77289762  0.72452025    -0.46400
C215        C  0.88899403  0.78428215  0.79586582     0.75200
O216        O  0.85604652  0.74763176  0.70591578    -0.58200
O217        O  0.89681014  0.79352305  0.76097382    -0.48300
O218        O  0.88287474  0.75794338  0.69893849    -0.54700
C219        C  0.88798581  0.78598721  0.62711469     0.85400
O220        O  0.87082527  0.79807009  0.71151966    -0.56500
O221        O  0.87421520  0.77123375  0.78732514    -0.59800
In222      In  0.83975563  0.59584788  0.61666078     1.36900
C223        C  0.84610814  0.62721998  0.63010168     0.77800
O224        O  0.84074660  0.60126389  0.54134169    -0.60600
O225        O  0.81758236  0.57953615  0.56852200    -0.51500
C226        C  0.85922528  0.58317852  0.60109967     0.70500
O227        O  0.86560149  0.59924179  0.60457944    -0.46400
C228        C  0.82830960  0.58602194  0.70304792     0.75200
O229        O  0.85808708  0.62458499  0.62496383    -0.58200
O230        O  0.81826174  0.58057190  0.66901802    -0.48300
O231        O  0.83106716  0.61392195  0.62643900    -0.54700
C232        C  0.82576180  0.58842234  0.53330377     0.85400
O233        O  0.84309874  0.57380553  0.60737372    -0.56500
O234        O  0.84404998  0.59578568  0.69217101    -0.59800
In235      In  0.92629524  0.78043147  0.20864981     1.36900
C236        C  0.90220568  0.74739543  0.19413980     0.77800
O237        O  0.91872899  0.77311408  0.28201553    -0.60600
O238        O  0.91961927  0.79520921  0.25857175    -0.51500
C239        C  0.95913560  0.79425896  0.22903390     0.70500
O240        O  0.94884172  0.77831420  0.22110715    -0.46400
C241        C  0.92434931  0.79081604  0.12490567     0.75200
O242        O  0.91809822  0.75323543  0.19088687    -0.58200
O243        O  0.91803251  0.79344919  0.16084277    -0.48300
O244        O  0.89871596  0.75837705  0.20569764    -0.54700
C245        C  0.91658667  0.78517101  0.29169587     0.85400
O246        O  0.95282048  0.80321349  0.22432898    -0.56500
O247        O  0.93269254  0.78407995  0.13279935    -0.59800
In248      In  0.78561918  0.58942960  0.12343484     1.36900
C249        C  0.80932482  0.62222231  0.14173952     0.77800
O250        O  0.77936241  0.58572217  0.19888600    -0.60600
O251        O  0.79404351  0.57629204  0.17056163    -0.51500
C252        C  0.75203861  0.57385389  0.11101084     0.70500
O253        O  0.76202056  0.59002854  0.11599081    -0.46400
C254        C  0.79503589  0.58682481  0.03707877     0.75200
O255        O  0.79368293  0.61687906  0.13600637    -0.58200
O256        O  0.79266312  0.57633281  0.06830020    -0.48300
O257        O  0.81269217  0.61077911  0.13726630    -0.54700
C258        C  0.78753477  0.57878581  0.20649726     0.85400
O259        O  0.75931583  0.56568386  0.11245379    -0.56500
O260        O  0.79265245  0.59837695  0.05072733    -0.59800
In261      In  0.77814027  0.86754373  0.77510085     1.36900
C262        C  0.74666150  0.86059212  0.79268157     0.77800
O263        O  0.77963162  0.86472875  0.85050348    -0.60600
O264        O  0.79432376  0.89016399  0.82344678    -0.51500
C265        C  0.79061520  0.84765047  0.76553085     0.70500
O266        O  0.77464745  0.84157209  0.76453943    -0.46400
C267        C  0.78470669  0.88071948  0.68999053     0.75200
O268        O  0.74977154  0.84889049  0.78982799    -0.58200
O269        O  0.79357125  0.88934980  0.72453494    -0.48300
O270        O  0.75958102  0.87561673  0.78522691    -0.54700
C271        C  0.78980355  0.88064938  0.85865924     0.85400
O272        O  0.79997492  0.86385145  0.77080097    -0.56500
O273        O  0.77263902  0.86544802  0.69956524    -0.59800
In274      In  0.59819176  0.83029640  0.89524465     1.36900
C275        C  0.62950854  0.83677453  0.87995148     0.77800
O276        O  0.60347295  0.83245490  0.97069939    -0.60600
O277        O  0.58215085  0.80863954  0.94606215    -0.51500
C278        C  0.58456594  0.84922393  0.90113944     0.70500
O279        O  0.60063109  0.85583195  0.90365731    -0.46400
C280        C  0.58960388  0.81874605  0.80897388     0.75200
O281        O  0.62698133  0.84877177  0.88742904    -0.58200
O282        O  0.58377149  0.80856910  0.84310422    -0.48300
O283        O  0.61621362  0.82169109  0.88355342    -0.54700
C284        C  0.59120341  0.81731507  0.98040942     0.85400
O285        O  0.57569174  0.83299729  0.89635348    -0.56500
O286        O  0.59904106  0.83450604  0.81998037    -0.59800
In287      In  0.59243099  0.77597179  0.38870626     1.36900
C288        C  0.62475123  0.80097515  0.36980797     0.77800
O289        O  0.58861902  0.77006764  0.31321811    -0.60600
O290        O  0.57834846  0.78373559  0.34335080    -0.51500
C291        C  0.57714872  0.74217850  0.40135748     0.70500
O292        O  0.59323038  0.75224529  0.39463335    -0.46400
C293        C  0.59019320  0.78494341  0.47558490     0.75200
O294        O  0.62022308  0.78549365  0.37528585    -0.58200
O295        O  0.57972426  0.78294243  0.44496630    -0.48300
O296        O  0.61273682  0.80351078  0.37402757    -0.54700
C297        C  0.58119525  0.77787607  0.30666565     0.85400
O298        O  0.56898817  0.74948034  0.40078339    -0.56500
O299        O  0.60154725  0.78241171  0.46106131    -0.59800
In300      In  0.77977451  0.91843067  0.27472519     1.36900
C301        C  0.74640692  0.89492381  0.28537769     0.77800
O302        O  0.77384408  0.91229933  0.19965904    -0.60600
O303        O  0.79480739  0.91190488  0.22551595    -0.51500
C304        C  0.79509183  0.95209249  0.26015798     0.70500
O305        O  0.77900674  0.94203349  0.26630635    -0.46400
C306        C  0.78895072  0.91574844  0.35951439     0.75200
O307        O  0.75241782  0.91089313  0.28397644    -0.58200
O308        O  0.79164463  0.90928921  0.32399007    -0.48300
O309        O  0.75751146  0.89110319  0.28156132    -0.54700
C310        C  0.78604760  0.91033814  0.19081666     0.85400
O311        O  0.80328102  0.94488978  0.26297103    -0.56500
O312        O  0.78249181  0.92429339  0.35073141    -0.59800
In313      In  0.44030216  0.19751575  0.11823686     1.36900
C314        C  0.40869540  0.19098361  0.13279694     0.77800
O315        O  0.44236416  0.19457739  0.19317148    -0.60600
O316        O  0.45643820  0.22008875  0.16692915    -0.51500
C317        C  0.45236047  0.17728200  0.10911571     0.70500
O318        O  0.43640458  0.17124769  0.11259694    -0.46400
C319        C  0.44775133  0.21031356  0.03265252     0.75200
O320        O  0.41138799  0.17906901  0.12684869    -0.58200
O321        O  0.45583311  0.21936885  0.06762356    -0.48300
O322        O  0.42209985  0.20602832  0.13070687    -0.54700
C323        C  0.45219414  0.21049213  0.20186302     0.85400
O324        O  0.46194568  0.19358059  0.11015636    -0.56500
O325        O  0.43591400  0.19496135  0.04218539    -0.59800
In326      In  0.26113429  0.16611713  0.21377632     1.36900
C327        C  0.29311288  0.17366490  0.20465834     0.77800
O328        O  0.26679342  0.16906776  0.28878166    -0.60600
O329        O  0.24615335  0.14459387  0.26554695    -0.51500
C330        C  0.24761094  0.18504035  0.22370236     0.70500
O331        O  0.26367953  0.19175307  0.21980382    -0.46400
C332        C  0.25184145  0.15296939  0.12852851     0.75200
O333        O  0.28978961  0.18522827  0.20463567    -0.58200
O334        O  0.24591209  0.14355652  0.16404162    -0.48300
O335        O  0.28009943  0.15844665  0.20904827    -0.54700
C336        C  0.25516832  0.15378522  0.29940914     0.85400
O337        O  0.23859143  0.16873187  0.22243081    -0.56500
O338        O  0.26163802  0.16889010  0.13749768    -0.59800
In339      In  0.25539548  0.11018362  0.70994772     1.36900
C340        C  0.28829704  0.13551215  0.70303444     0.77800
O341        O  0.25492707  0.10655747  0.63345581    -0.60600
O342        O  0.24210910  0.11795729  0.66149875    -0.51500
C343        C  0.24277372  0.07700424  0.72230641     0.70500
O344        O  0.25870353  0.08830376  0.71906522    -0.46400
C345        C  0.24884724  0.11728703  0.79487662     0.75200
O346        O  0.28322249  0.11978062  0.70005948    -0.58200
O347        O  0.23951748  0.11521057  0.76100902    -0.48300
O348        O  0.27640675  0.13820072  0.70832185    -0.54700
C349        C  0.24687988  0.11359731  0.62542043     0.85400
O350        O  0.23317552  0.08252057  0.71644476    -0.56500
O351        O  0.26104806  0.11546077  0.78474597    -0.59800
In352      In  0.44485857  0.25021098  0.61796251     1.36900
C353        C  0.41139914  0.22765392  0.63041486     0.77800
O354        O  0.43943738  0.24536368  0.54264794    -0.60600
O355        O  0.45869224  0.24223312  0.56894160    -0.51500
C356        C  0.46108748  0.28390361  0.60239212     0.70500
O357        O  0.44490000  0.27408040  0.60595514    -0.46400
C358        C  0.45302371  0.24582820  0.70211907     0.75200
O359        O  0.41824974  0.24373362  0.63483259    -0.58200
O360        O  0.45636609  0.24020884  0.66590459    -0.48300
O361        O  0.42159842  0.22320320  0.61835641    -0.54700
C362        C  0.45068859  0.24198488  0.53393486     0.85400
O363        O  0.46899671  0.27660409  0.60928478    -0.56500
O364        O  0.44674146  0.25460860  0.69438428    -0.59800
In365      In  0.78358581  0.20636117  0.62584013     1.36900
C366        C  0.80761051  0.19958772  0.63691411     0.77800
O367        O  0.78856343  0.20412946  0.55165388    -0.60600
O368        O  0.79302699  0.22820006  0.57599823    -0.51500
C369        C  0.75014989  0.18747235  0.60959042     0.70500
O370        O  0.75826013  0.18063813  0.61998657    -0.46400
C371        C  0.78469667  0.21882554  0.71008837     0.75200
O372        O  0.79188026  0.18780481  0.63156315    -0.58200
O373        O  0.79129804  0.22851394  0.67529866    -0.48300
O374        O  0.81081598  0.21471546  0.63707247    -0.54700
C375        C  0.79336800  0.21939429  0.54232003     0.85400
O376        O  0.75906588  0.20376178  0.60952780    -0.56500
O377        O  0.77693129  0.20289827  0.70071371    -0.59800
In378      In  0.92100357  0.16515958  0.68974580     1.36900
C379        C  0.89940457  0.17518212  0.68229180     0.77800
O380        O  0.92614985  0.16840669  0.61372779    -0.60600
O381        O  0.90988403  0.14291531  0.63812237    -0.51500
C382        C  0.95463971  0.18516822  0.70497673     0.70500
O383        O  0.94516074  0.19100230  0.70391235    -0.46400
C384        C  0.91126278  0.14965107  0.77121067     0.75200
O385        O  0.91555860  0.18566765  0.68002919    -0.58200
O386        O  0.91276926  0.14227322  0.73572292    -0.48300
O387        O  0.89439461  0.15974270  0.68997296    -0.54700
C388        C  0.91643211  0.15261328  0.60340011     0.85400
O389        O  0.94697906  0.16918029  0.69638499    -0.56500
O390        O  0.91507969  0.16474723  0.76441593    -0.59800
In391      In  0.83358402  0.25432183  0.12101780     1.36900
C392        C  0.84125827  0.23048969  0.11750301     0.77800
O393        O  0.83768704  0.25573439  0.19660979    -0.60600
O394        O  0.81207481  0.24503280  0.17389174    -0.51500
C395        C  0.85281058  0.28871207  0.11981059     0.70500
O396        O  0.85911978  0.27966707  0.11395477    -0.46400
C397        C  0.81908820  0.24846044  0.03917271     0.75200
O398        O  0.85272674  0.24650648  0.11860686    -0.58200
O399        O  0.81049247  0.24555858  0.07641653    -0.48300
O400        O  0.82600910  0.22683458  0.11848840    -0.54700
C401        C  0.82198223  0.24865686  0.20752738     0.85400
O402        O  0.83667311  0.28009077  0.12612511    -0.56500
O403        O  0.83481384  0.25428161  0.04440849    -0.59800
In404      In  0.86910296  0.11278296  0.18447292     1.36900
C405        C  0.86214644  0.13606561  0.16431478     0.77800
O406        O  0.86536222  0.11719779  0.25860884    -0.60600
O407        O  0.89002159  0.12280923  0.23742886    -0.51500
C408        C  0.85176988  0.07902917  0.19681449     0.70500
O409        O  0.84424019  0.08673377  0.18934704    -0.46400
C410        C  0.88105316  0.11329601  0.10003582     0.75200
O411        O  0.85037354  0.12072270  0.17505222    -0.58200
O412        O  0.89110099  0.12106177  0.13361610    -0.48300
O413        O  0.87729471  0.13949400  0.16601160    -0.54700
C414        C  0.88042576  0.12223349  0.27040080     0.85400
O415        O  0.86800853  0.08867811  0.19836602    -0.56500
O416        O  0.86524954  0.10480402  0.11085441    -0.59800
In417      In  0.20739921  0.44230884  0.40184124     1.36900
C418        C  0.20076211  0.41109434  0.38234506     0.77800
O419        O  0.20424218  0.44361508  0.32645634    -0.60600
O420        O  0.22964907  0.45888726  0.35297625    -0.51500
C421        C  0.18818741  0.45530867  0.41497690     0.70500
O422        O  0.18179252  0.43923083  0.41588315    -0.46400
C423        C  0.22081834  0.44796323  0.48572248     0.75200
O424        O  0.18884737  0.41363608  0.39066747    -0.58200
O425        O  0.22926920  0.45738160  0.45159105    -0.48300
O426        O  0.21584091  0.42433476  0.38585156    -0.54700
C427        C  0.22011608  0.45405942  0.31791979     0.85400
O428        O  0.20421182  0.46453608  0.40710259    -0.56500
O429        O  0.20566098  0.43578148  0.47633513    -0.59800
In430      In  0.16746003  0.26036390  0.29117256     1.36900
C431        C  0.17694622  0.29292829  0.30611186     0.77800
O432        O  0.16714675  0.26564016  0.21622106    -0.60600
O433        O  0.14445035  0.24393141  0.24508971    -0.51500
C434        C  0.18550420  0.24618859  0.27265377     0.70500
O435        O  0.19244229  0.26237403  0.27416654    -0.46400
C436        C  0.15634729  0.25125837  0.37864733     0.75200
O437        O  0.18777776  0.28868408  0.30223962    -0.58200
O438        O  0.14607821  0.24708498  0.34552607    -0.48300
O439        O  0.16151361  0.28068649  0.29979010    -0.54700
C440        C  0.15205494  0.25278264  0.20936837     0.85400
O441        O  0.16954808  0.23746022  0.28191350    -0.56500
O442        O  0.17195353  0.25917711  0.36607048    -0.59800
In443      In  0.25703062  0.44394728  0.90092643     1.36900
C444        C  0.23156106  0.41147610  0.88730170     0.77800
O445        O  0.25150641  0.43861426  0.97601656    -0.60600
O446        O  0.25330105  0.46092889  0.95096636    -0.51500
C447        C  0.28990586  0.45590878  0.91191916     0.70500
O448        O  0.27822626  0.44003023  0.91414677    -0.46400
C449        C  0.25476549  0.45312221  0.81631948     0.75200
O450        O  0.24716516  0.41619276  0.88724280    -0.58200
O451        O  0.24896846  0.45674404  0.85171483    -0.48300
O452        O  0.22897757  0.42327076  0.89660762    -0.54700
C453        C  0.25103098  0.45170098  0.98544166     0.85400
O454        O  0.28481913  0.46565318  0.90267525    -0.56500
O455        O  0.26263977  0.44597956  0.82528290    -0.59800
In456      In  0.11265878  0.25659552  0.79873743     1.36900
C457        C  0.13613512  0.28888070  0.82105746     0.77800
O458        O  0.10550065  0.25245129  0.87405959    -0.60600
O459        O  0.12001240  0.24271715  0.84728270    -0.51500
C460        C  0.07961926  0.24363458  0.78282627     0.70500
O461        O  0.09064100  0.25962162  0.78735456    -0.46400
C462        C  0.12326570  0.25391964  0.71336373     0.75200
O463        O  0.12070054  0.28382803  0.81349643    -0.58200
O464        O  0.11912466  0.24268487  0.74405874    -0.48300
O465        O  0.13962730  0.27755858  0.81531245    -0.54700
C466        C  0.11340528  0.24533645  0.88277863     0.85400
O467        O  0.08557956  0.23428227  0.78603201    -0.56500
O468        O  0.12212390  0.26624292  0.72720308    -0.59800
C469        C  0.20461671  0.36626179  0.83573913    -0.22200
C470        C  0.18969641  0.35918595  0.86346871     0.09800
C471        C  0.18842780  0.36931713  0.89843128     0.10200
C472        C  0.20229591  0.38643884  0.90508652    -0.17100
C473        C  0.21734610  0.39356358  0.87755352    -0.27500
C474        C  0.21836066  0.38346281  0.84159361     0.18500
C475        C  0.17533978  0.34127198  0.85399772     0.12500
C476        C  0.17243753  0.36205799  0.92844435    -0.11900
H477        H  0.20147133  0.39424771  0.93225448     0.12800
C478        C  0.23313562  0.39046968  0.80705460    -0.22700
H479        H  0.20530649  0.35842910  0.80837226     0.08400
C480        C  0.16355817  0.33743390  0.81862577     0.04700
C481        C  0.15048819  0.32016462  0.80968347    -0.20000
C482        C  0.14918343  0.30673143  0.83487446    -0.12200
C483        C  0.16070728  0.31064644  0.87132976     0.13400
C484        C  0.17376619  0.32793140  0.88011276    -0.22700
C485        C  0.16493077  0.35155413  0.79009497    -0.05700
H486        H  0.14156867  0.31708978  0.78198340     0.15000
C487        C  0.15936114  0.29711949  0.90260259    -0.15900
H488        H  0.18277488  0.33105151  0.90761687     0.09300
H489        H  0.22801460  0.38802589  0.77148715     0.07200
H490        H  0.23994927  0.38378357  0.81100308     0.08400
H491        H  0.24256641  0.40457099  0.81015810     0.07400
H492        H  0.17029159  0.35081933  0.94786337     0.02300
H493        H  0.16110340  0.35782017  0.90657152     0.02800
H494        H  0.17351113  0.37178474  0.95384488     0.06300
H495        H  0.15459924  0.34630825  0.76406508     0.05200
H496        H  0.17755548  0.35863879  0.77143027    -0.00500
H497        H  0.16382619  0.36072531  0.81295315     0.01000
H498        H  0.17112750  0.29682114  0.89839731     0.04600
H499        H  0.14793841  0.28396591  0.89610238     0.06600
H500        H  0.15829754  0.30044515  0.93914089     0.07400
C501        C  0.12892082  0.22999816  0.09703192    -0.22200
C502        C  0.13158880  0.24404495  0.07177193     0.09800
C503        C  0.14058695  0.26068254  0.09228565     0.10200
C504        C  0.14674275  0.26291493  0.13742737    -0.17100
C505        C  0.14416704  0.24893377  0.16294380    -0.27500
C506        C  0.13523293  0.23221394  0.14217229     0.18500
C507        C  0.12550323  0.24141048  0.02325938     0.12500
C508        C  0.14399658  0.27617255  0.06610150    -0.11900
H509        H  0.15372730  0.27574225  0.15289859     0.12800
C510        C  0.13288209  0.21657161  0.16500868    -0.22700
H511        H  0.12222770  0.21727459  0.08096665     0.08400
C512        C  0.13552603  0.24139697  0.98565905     0.04700
C513        C  0.13056329  0.24141917  0.94010672    -0.20000
C514        C  0.11599119  0.24187430  0.93107619    -0.12200
C515        C  0.10544439  0.24094298  0.96903672     0.13400
C516        C  0.11030075  0.24060140  0.01448921    -0.22700
C517        C  0.15188638  0.24213916  0.99372772    -0.05700
H518        H  0.13869394  0.24208699  0.91149822     0.15000
C519        C  0.08913814  0.24048416  0.96234286    -0.15900
H520        H  0.10260076  0.24048044  0.04354125     0.09300
H521        H  0.13895556  0.21126859  0.14294404     0.07200
H522        H  0.11891149  0.20652048  0.16900379     0.08400
H523        H  0.13875965  0.21932552  0.19941910     0.07400
H524        H  0.13159628  0.27442612  0.05688034     0.02300
H525        H  0.15153414  0.27771092  0.03398887     0.02800
H526        H  0.15142838  0.28827211  0.08687217     0.06300
H527        H  0.15833457  0.24223233  0.96070469     0.05200
H528        H  0.14891355  0.23068900  0.01366993    -0.00500
H529        H  0.16101319  0.25406571  0.01349390     0.01000
H530        H  0.08193255  0.23839394  0.99547043     0.04600
H531        H  0.08053807  0.22974733  0.93834974     0.06600
H532        H  0.09224899  0.25295650  0.94836282     0.07400
C533        C  0.15645419  0.24918441  0.51080603    -0.22200
C534        C  0.14052906  0.24676481  0.52251436     0.09800
C535        C  0.12919893  0.24418224  0.48697487     0.10200
C536        C  0.13433152  0.24475301  0.44044544    -0.17100
C537        C  0.15072259  0.24819573  0.42835454    -0.27500
C538        C  0.16175217  0.24997313  0.46433587     0.18500
C539        C  0.13656857  0.24840125  0.57191572     0.12500
C540        C  0.11179379  0.24113301  0.49824465    -0.11900
H541        H  0.12574171  0.24323816  0.41340309     0.12800
C542        C  0.17916922  0.25280064  0.45450431    -0.22700
H543        H  0.16503591  0.25104883  0.53832159     0.08400
C544        C  0.13015240  0.23469045  0.60336061     0.04700
C545        C  0.12630987  0.23696700  0.64941047    -0.20000
C546        C  0.12858139  0.25263520  0.66484371    -0.12200
C547        C  0.13536823  0.26650206  0.63302484     0.13400
C548        C  0.13930613  0.26415702  0.58729781    -0.22700
C549        C  0.12707519  0.21757530  0.58799528    -0.05700
H550        H  0.12118027  0.22630360  0.67319852     0.15000
C551        C  0.13859476  0.28389295  0.64637577    -0.15900
H552        H  0.14439291  0.27466726  0.56294652     0.09300
H553        H  0.18536822  0.25265778  0.48663194     0.07200
H554        H  0.18794914  0.26557830  0.43828038     0.08400
H555        H  0.17775021  0.24236884  0.43132048     0.07400
H556        H  0.11338532  0.25248308  0.51719168     0.02300
H557        H  0.10419652  0.22949315  0.52011548     0.02800
H558        H  0.10437599  0.23906063  0.46654689     0.06300
H559        H  0.12180333  0.20811191  0.61659067     0.05200
H560        H  0.13939331  0.21936776  0.57568925    -0.00500
H561        H  0.11770564  0.21210430  0.55940894     0.01000
H562        H  0.14452106  0.29321692  0.61748975     0.04600
H563        H  0.14756415  0.28950146  0.67584220     0.06600
H564        H  0.12623088  0.28253355  0.65580791     0.07400
C565        C  0.25290231  0.47334402  0.10148940    -0.22200
C566        C  0.24045600  0.45891654  0.12693733     0.09800
C567        C  0.23139801  0.44247396  0.10546336     0.10200
C568        C  0.23498024  0.44081369  0.05900734    -0.17100
C569        C  0.24749269  0.45515312  0.03327539    -0.27500
C570        C  0.25673172  0.47168337  0.05498795     0.18500
C571        C  0.23718867  0.46095975  0.17639803     0.12500
C572        C  0.21818398  0.42659073  0.13189506    -0.11900
H573        H  0.22801608  0.42813362  0.04266528     0.12800
C574        C  0.27127934  0.48765573  0.03161455    -0.22700
H575        H  0.25997568  0.48591715  0.11838981     0.08400
C576        C  0.24753909  0.46113928  0.21151995     0.04700
C577        C  0.24233867  0.46027515  0.25802000    -0.20000
C578        C  0.22694446  0.45908304  0.27006086    -0.12200
C579        C  0.21734294  0.46030808  0.23486618     0.13400
C580        C  0.22248842  0.46099664  0.18847600    -0.22700
C581        C  0.26359658  0.46139923  0.19977210    -0.05700
H582        H  0.24976870  0.45943618  0.28483828     0.15000
C583        C  0.20171079  0.46104999  0.24471026    -0.15900
H584        H  0.21473695  0.46115455  0.16137024     0.09300
H585        H  0.28316440  0.49310903  0.05211340     0.07200
H586        H  0.26794839  0.49746104  0.02983830     0.08400
H587        H  0.27436363  0.48523858  0.99626040     0.07400
H588        H  0.20754315  0.42791704  0.14441804     0.02300
H589        H  0.22430966  0.42492580  0.16194717     0.02800
H590        H  0.21250727  0.41471417  0.11007061     0.06300
H591        H  0.27007412  0.46125120  0.23129662     0.05200
H592        H  0.27284102  0.47328338  0.18025233    -0.00500
H593        H  0.26025754  0.44989295  0.17828593     0.01000
H594        H  0.20336892  0.47244774  0.22731066     0.04600
H595        H  0.19966610  0.46251939  0.28196580     0.06600
H596        H  0.19004966  0.44917697  0.23102870     0.07400
C597        C  0.24789337  0.46767632  0.59455042    -0.22200
C598        C  0.23870362  0.45392052  0.62532666     0.09800
C599        C  0.22401769  0.43827900  0.61005946     0.10200
C600        C  0.21870536  0.43678279  0.56433850    -0.17100
C601        C  0.22774151  0.45054589  0.53315080    -0.27500
C602        C  0.24262061  0.46622351  0.54857439     0.18500
C603        C  0.24454975  0.45597977  0.67359288     0.12500
C604        C  0.21398444  0.42312745  0.64207018    -0.11900
H605        H  0.20738107  0.42471005  0.55293962     0.12800
C606        C  0.25280359  0.48160965  0.51746917    -0.22700
H607        H  0.25918770  0.47962179  0.60672680     0.08400
C608        C  0.25698006  0.45254199  0.68555496     0.04700
C609        C  0.26066749  0.45269416  0.73230338    -0.20000
C610        C  0.25200545  0.45591087  0.76772217    -0.12200
C611        C  0.23988725  0.45990937  0.75534422     0.13400
C612        C  0.23644831  0.46001264  0.70835368    -0.22700
C613        C  0.26591007  0.44812492  0.64904867    -0.05700
H614        H  0.26998974  0.44967111  0.74119472     0.15000
C615        C  0.22997313  0.46337813  0.79103627    -0.15900
H616        H  0.22686274  0.46257777  0.69862817     0.09300
H617        H  0.26366178  0.49286000  0.53585195     0.07200
H618        H  0.24431400  0.48559301  0.50476148     0.08400
H619        H  0.25836056  0.47831949  0.48776278     0.07400
H620        H  0.20883239  0.42675390  0.67205392     0.02300
H621        H  0.22252860  0.41920602  0.65472849     0.02800
H622        H  0.20293362  0.41178892  0.62449165     0.06300
H623        H  0.27513857  0.44556425  0.66432979     0.05200
H624        H  0.27317840  0.45904197  0.62470455    -0.00500
H625        H  0.25622713  0.43637636  0.62959007     0.01000
H626        H  0.22108721  0.46622483  0.77486535     0.04600
H627        H  0.23905497  0.47473856  0.81266116     0.06600
H628        H  0.22205257  0.45185921  0.81313622     0.07400
C629        C  0.19655593  0.33756703  0.36219585    -0.22200
C630        C  0.18841831  0.34395115  0.33763927     0.09800
C631        C  0.17676876  0.33366131  0.30256302     0.10200
C632        C  0.17354683  0.31720648  0.29274322    -0.17100
C633        C  0.18164230  0.31071588  0.31726655    -0.27500
C634        C  0.19309622  0.32095818  0.35315961     0.18500
C635        C  0.19176014  0.36119039  0.35014141     0.12500
C636        C  0.16748558  0.33993266  0.27615332    -0.11900
H637        H  0.16457588  0.30930500  0.26580456     0.12800
C638        C  0.20110804  0.31458381  0.38462946    -0.22700
H639        H  0.20527939  0.34541392  0.38965227     0.08400
C640        C  0.18331211  0.36344269  0.38827709     0.04700
C641        C  0.18619592  0.37981366  0.39736490    -0.20000
C642        C  0.19747886  0.39400774  0.36947498    -0.12200
C643        C  0.20585466  0.39170205  0.33098490     0.13400
C644        C  0.20298643  0.37534122  0.32214980    -0.22700
C645        C  0.17118056  0.34853817  0.41915345    -0.05700
H646        H  0.17984638  0.38161937  0.42684386     0.15000
C647        C  0.21730803  0.40591094  0.29729193    -0.15900
H648        H  0.20928118  0.37350709  0.29256833     0.09300
H649        H  0.19764783  0.31558151  0.42110432     0.07200
H650        H  0.21535709  0.32273416  0.38043455     0.08400
H651        H  0.19670112  0.30093288  0.37844776     0.07400
H652        H  0.17696781  0.35190748  0.25731777     0.02300
H653        H  0.15979448  0.34268513  0.30051379     0.02800
H654        H  0.15858162  0.33017276  0.25046493     0.06300
H655        H  0.16551439  0.35246468  0.44710385     0.05200
H656        H  0.17821892  0.34349234  0.43553640    -0.00500
H657        H  0.16047722  0.33806268  0.39846871     0.01000
H658        H  0.23060742  0.40882441  0.29833267     0.04600
H659        H  0.21784666  0.41801573  0.30409470     0.06600
H660        H  0.21234619  0.40157129  0.26175988     0.07400
C661        C  0.83825853  0.18793248  0.10075785    -0.22200
C662        C  0.85176206  0.19084087  0.12844524     0.09800
C663        C  0.86251107  0.20715454  0.14971179     0.10200
C664        C  0.85922343  0.22010666  0.14367984    -0.17100
C665        C  0.84531258  0.21706001  0.11725003    -0.27500
C666        C  0.83497448  0.20085613  0.09438083     0.18500
C667        C  0.85385829  0.17632897  0.13649736     0.12500
C668        C  0.87713535  0.21069946  0.17976529    -0.11900
H669        H  0.86715911  0.23246016  0.16120632     0.12800
C670        C  0.82065227  0.19673840  0.06217316    -0.22700
H671        H  0.83015865  0.17541615  0.08410304     0.08400
C672        C  0.84460067  0.16443988  0.17230995     0.04700
C673        C  0.84709958  0.15101937  0.17948405    -0.20000
C674        C  0.85865583  0.14922589  0.15164676    -0.12200
C675        C  0.86733458  0.16068217  0.11423621     0.13400
C676        C  0.86499500  0.17425469  0.10761898    -0.22700
C677        C  0.83226076  0.16609577  0.20333859    -0.05700
H678        H  0.84037729  0.14218395  0.20784084     0.15000
C679        C  0.87858201  0.15863696  0.07956501    -0.15900
H680        H  0.87175489  0.18317471  0.07942778     0.09300
H681        H  0.80805102  0.18672941  0.07785115     0.07200
H682        H  0.82246011  0.19163467  0.02889941     0.08400
H683        H  0.82033503  0.20813202  0.05348304     0.07400
H684        H  0.88641669  0.20905062  0.15911898     0.02300
H685        H  0.87205901  0.20156668  0.20909959     0.02800
H686        H  0.88418824  0.22406148  0.19418923     0.06300
H687        H  0.82610880  0.15578196  0.22973118     0.05200
H688        H  0.82191054  0.16511842  0.18238866    -0.00500
H689        H  0.83924696  0.17878439  0.22160900     0.01000
H690        H  0.87381585  0.15778530  0.04416875     0.04600
H691        H  0.87854127  0.14679133  0.08451765     0.06600
H692        H  0.89205370  0.17003213  0.08159973     0.07400
C693        C  0.99820231  0.21848617  0.75734848    -0.22200
C694        C  0.00891075  0.21459389  0.73282527     0.09800
C695        C  0.00189826  0.20160948  0.69829448     0.10200
C696        C  0.98420822  0.19257724  0.68948097    -0.17100
C697        C  0.97327855  0.19603586  0.71482570    -0.27500
C698        C  0.98038923  0.20918734  0.74948669     0.18500
C699        C  0.02701423  0.22287716  0.74714215     0.12500
C700        C  0.01306076  0.19708419  0.67136842    -0.11900
H701        H  0.97881812  0.18255386  0.66299287     0.12800
C702        C  0.96971865  0.21310928  0.78114509    -0.22700
H703        H  0.00366254  0.22828984  0.78442204     0.08400
C704        C  0.04046655  0.23880828  0.72911393     0.04700
C705        C  0.05749478  0.24549591  0.74240274    -0.20000
C706        C  0.06130877  0.23657051  0.77327710    -0.12200
C707        C  0.04761874  0.22098149  0.79294976     0.13400
C708        C  0.03070316  0.21424993  0.77902081    -0.22700
C709        C  0.03684339  0.24853490  0.69541815    -0.05700
H710        H  0.06792819  0.25752866  0.72769120     0.15000
C711        C  0.05009693  0.21137124  0.82995156    -0.15900
H712        H  0.02022044  0.20215978  0.79340914     0.09300
H713        H  0.97330182  0.22651085  0.77526073     0.07200
H714        H  0.97238182  0.21204200  0.81766635     0.08400
H715        H  0.95566526  0.20418747  0.77691089     0.07400
H716        H  0.01881442  0.19245394  0.69524807     0.02300
H717        H  0.02354793  0.20866715  0.65300697     0.02800
H718        H  0.00556812  0.18673876  0.64527565     0.06300
H719        H  0.04883258  0.26074906  0.68444049     0.05200
H720        H  0.02799728  0.25180540  0.71176823    -0.00500
H721        H  0.03072797  0.24043510  0.66412564     0.01000
H722        H  0.04160422  0.20948688  0.86017389     0.04600
H723        H  0.06339226  0.21829930  0.84305088     0.06600
H724        H  0.04651435  0.19850524  0.81638618     0.07400
C725        C  0.88378586  0.13477578  0.39849574    -0.22200
C726        C  0.89728827  0.13328008  0.41198196     0.09800
C727        C  0.90541080  0.12846213  0.37897202     0.10200
C728        C  0.89979667  0.12518075  0.33300247    -0.17100
C729        C  0.88615974  0.12653031  0.31922419    -0.27500
C730        C  0.87811471  0.13152065  0.35260566     0.18500
C731        C  0.90333044  0.13789055  0.46032799     0.12500
C732        C  0.92005717  0.12688655  0.39232574    -0.11900
H733        H  0.90598413  0.12134434  0.30781438     0.12800
C734        C  0.86393737  0.13401131  0.34020572    -0.22700
H735        H  0.87780851  0.13873842  0.42404393     0.08400
C736        C  0.91528051  0.15520224  0.47329758     0.04700
C737        C  0.91977506  0.15933235  0.51983044    -0.20000
C738        C  0.91251448  0.14660557  0.55428393    -0.12200
C739        C  0.90094418  0.12906954  0.54082039     0.13400
C740        C  0.89651195  0.12497329  0.49392813    -0.22700
C741        C  0.92310465  0.16939240  0.43801527    -0.05700
H742        H  0.92870831  0.17276061  0.52939066     0.15000
C743        C  0.89302349  0.11460893  0.57527523    -0.15900
H744        H  0.88741086  0.11167744  0.48347139     0.09300
H745        H  0.86842339  0.14348632  0.31179372     0.07200
H746        H  0.86003909  0.13900822  0.36999547     0.08400
H747        H  0.85232724  0.12149969  0.32942973     0.07400
H748        H  0.91559688  0.11698209  0.41954511     0.02300
H749        H  0.93084566  0.13948389  0.40579765     0.02800
H750        H  0.92501468  0.12300767  0.36240405     0.06300
H751        H  0.93228723  0.18223431  0.45389240     0.05200
H752        H  0.91279273  0.16998796  0.42147817    -0.00500
H753        H  0.93021057  0.16683045  0.41107499     0.01000
H754        H  0.88480437  0.11625253  0.60059747     0.04600
H755        H  0.90335018  0.11454034  0.59355296     0.06600
H756        H  0.88475288  0.10177894  0.55825635     0.07400
C757        C  0.89410154  0.13980879  0.89503536    -0.22200
C758        C  0.89862387  0.12835272  0.90791726     0.09800
C759        C  0.90579540  0.12254682  0.87466853     0.10200
C760        C  0.90922731  0.12918826  0.82959463    -0.17100
C761        C  0.90574276  0.14158798  0.81742892    -0.27500
C762        C  0.89757840  0.14655941  0.85036779     0.18500
C763        C  0.89603175  0.12317284  0.95701219     0.12500
C764        C  0.91020804  0.10973984  0.88717576    -0.11900
H765        H  0.91520503  0.12514373  0.80430704     0.12800
C766        C  0.89224558  0.15879319  0.83891563    -0.22700
H767        H  0.88818876  0.14382872  0.92065911     0.08400
C768        C  0.90685168  0.13488207  0.99158743     0.04700
C769        C  0.90231805  0.13069028  0.03829626    -0.20000
C770        C  0.88704321  0.11518975  0.05119366    -0.12200
C771        C  0.87686778  0.10291941  0.01637276     0.13400
C772        C  0.88152977  0.10711673  0.96966616    -0.22700
C773        C  0.92294638  0.15200026  0.97911339    -0.05700
H774        H  0.91021225  0.14004866  0.06474252     0.15000
C775        C  0.86104470  0.08543359  0.02785417    -0.15900
H776        H  0.87339627  0.09816172  0.94280548     0.09300
H777        H  0.90379131  0.17192811  0.83251363     0.07200
H778        H  0.88476655  0.15996920  0.86772459     0.08400
H779        H  0.88397640  0.15399595  0.80795232     0.07400
H780        H  0.89836772  0.09750436  0.89865935     0.02300
H781        H  0.91964486  0.11509549  0.91560104     0.02800
H782        H  0.91593954  0.10671729  0.85730446     0.06300
H783        H  0.93015988  0.15943392  0.01029784     0.05200
H784        H  0.91956303  0.15997114  0.96004004    -0.00500
H785        H  0.93156871  0.14979867  0.95704300     0.01000
H786        H  0.85570187  0.07707496  0.99656126     0.04600
H787        H  0.85073882  0.08681254  0.04297549     0.06600
H788        H  0.86437448  0.07875155  0.05257465     0.07400
C789        C  0.81317103  0.22810913  0.42207706    -0.22200
C790        C  0.80474524  0.23489441  0.40107101     0.09800
C791        C  0.79340542  0.23763587  0.42735388     0.10200
C792        C  0.79054469  0.23325997  0.47435982    -0.17100
C793        C  0.79867521  0.22606998  0.49513331    -0.27500
C794        C  0.81041248  0.22378958  0.46893560     0.18500
C795        C  0.80821987  0.23910234  0.35143840     0.12500
C796        C  0.78418664  0.24490997  0.40554311    -0.11900
H797        H  0.78146396  0.23485065  0.49451188     0.12800
C798        C  0.82055651  0.21723067  0.48933902    -0.22700
H799        H  0.82205608  0.22626999  0.40174267     0.08400
C800        C  0.82270321  0.25499406  0.33661693     0.04700
C801        C  0.82637577  0.25787637  0.28918852    -0.20000
C802        C  0.81609866  0.24510682  0.25625512    -0.12200
C803        C  0.80162462  0.22904033  0.27130102     0.13400
C804        C  0.79771551  0.22641747  0.31879895    -0.22700
C805        C  0.83446863  0.26872956  0.37094030    -0.05700
H806        H  0.83757802  0.27007654  0.27772716     0.15000
C807        C  0.79071775  0.21392445  0.23926411    -0.15900
H808        H  0.78682464  0.21407222  0.33065526     0.09300
H809        H  0.83453532  0.22671446  0.48279114     0.07200
H810        H  0.81678163  0.20471855  0.47269756     0.08400
H811        H  0.81873475  0.21541615  0.52723806     0.07400
H812        H  0.77608549  0.23627252  0.37692559     0.02300
H813        H  0.79374057  0.25792493  0.39156563     0.02800
H814        H  0.77569134  0.24613890  0.43089015     0.06300
H815        H  0.84520710  0.28042227  0.35349845     0.05200
H816        H  0.84015079  0.26365194  0.39353877    -0.00500
H817        H  0.82706240  0.27262317  0.39262360     0.01000
H818        H  0.79079398  0.20259793  0.25071126     0.04600
H819        H  0.79530828  0.21626938  0.20289654     0.06600
H820        H  0.77723718  0.21055103  0.24058121     0.07400
C821        C  0.80211065  0.24637440  0.81975652    -0.22200
C822        C  0.79321235  0.23359514  0.85330133     0.09800
C823        C  0.77990933  0.21680481  0.83997663     0.10200
C824        C  0.77663940  0.21279713  0.79290169    -0.17100
C825        C  0.78650407  0.22513459  0.75864768    -0.27500
C826        C  0.79894870  0.24239769  0.77241725     0.18500
C827        C  0.79957300  0.23737415  0.90116709     0.12500
C828        C  0.76962104  0.20295893  0.87541698    -0.11900
H829        H  0.76681226  0.19966634  0.78283801     0.12800
C830        C  0.80951984  0.25652490  0.73789731    -0.22700
H831        H  0.81223691  0.25928724  0.83061856     0.08400
C832        C  0.81192265  0.23400317  0.91468758     0.04700
C833        C  0.81771005  0.23760587  0.96018615    -0.20000
C834        C  0.81163813  0.24468907  0.99256611    -0.12200
C835        C  0.79943588  0.24836861  0.97874429     0.13400
C836        C  0.79339342  0.24442338  0.93317757    -0.22700
C837        C  0.81912726  0.22674223  0.88093872    -0.05700
H838        H  0.82710530  0.23486008  0.97060399     0.15000
C839        C  0.79313571  0.25718960  0.00975578    -0.15900
H840        H  0.78405262  0.24716759  0.92226452     0.09300
H841        H  0.81749133  0.25335486  0.71614092     0.07200
H842        H  0.81841096  0.26916806  0.75515291     0.08400
H843        H  0.80086590  0.25805633  0.71577561     0.07400
H844        H  0.76306693  0.20710606  0.89977280     0.02300
H845        H  0.77825217  0.20065155  0.89512745     0.02800
H846        H  0.75962464  0.19052508  0.85911533     0.06300
H847        H  0.82876169  0.22499254  0.89723811     0.05200
H848        H  0.82556441  0.23568338  0.85146123    -0.00500
H849        H  0.80860300  0.21396329  0.86768189     0.01000
H850        H  0.79584192  0.26909403  0.99279659     0.04600
H851        H  0.79943885  0.26116915  0.04371599     0.06600
H852        H  0.77900066  0.24841759  0.01552659     0.07400
C853        C  0.83345082  0.17867281  0.63473103    -0.22200
C854        C  0.84841603  0.19139912  0.65731210     0.09800
C855        C  0.85019402  0.20691513  0.67188978     0.10200
C856        C  0.83666482  0.20917525  0.66463783    -0.17100
C857        C  0.82138185  0.19626921  0.64304508    -0.27500
C858        C  0.81990700  0.18090569  0.62717585     0.18500
C859        C  0.86199155  0.18805552  0.66551048     0.12500
C860        C  0.86631636  0.22099223  0.69531720    -0.11900
H861        H  0.83798649  0.22105060  0.67639666     0.12800
C862        C  0.80441622  0.16702005  0.60115139    -0.22700
H863        H  0.83238295  0.16690217  0.62309340     0.08400
C864        C  0.86099044  0.17835621  0.70372148     0.04700
C865        C  0.87362474  0.17464308  0.70869893    -0.20000
C866        C  0.88715469  0.18035558  0.67618941    -0.12200
C867        C  0.88808714  0.19002035  0.63769796     0.13400
C868        C  0.87558700  0.19395292  0.63329720    -0.22700
C869        C  0.84651575  0.17183845  0.73893360    -0.05700
H870        H  0.87288908  0.16714219  0.73794197     0.15000
C871        C  0.90132593  0.19551292  0.59913725    -0.15900
H872        H  0.87610957  0.20118909  0.60366538     0.09300
H873        H  0.79274545  0.16120386  0.62384386     0.07200
H874        H  0.80597388  0.15644298  0.58923757     0.08400
H875        H  0.80254603  0.17262036  0.57014794     0.07400
H876        H  0.87762916  0.22548227  0.67178788     0.02300
H877        H  0.86824151  0.21597845  0.72744093     0.02800
H878        H  0.86559866  0.23229294  0.70470991     0.06300
H879        H  0.84775674  0.16460187  0.76691526     0.05200
H880        H  0.83396692  0.16303999  0.72194276    -0.00500
H881        H  0.84658378  0.18290643  0.75489750     0.01000
H882        H  0.89464252  0.19026025  0.56575486     0.04600
H883        H  0.90992355  0.19082684  0.60287080     0.06600
H884        H  0.90938740  0.20983499  0.59735802     0.07400
C885        C  0.33733286  0.16215301  0.70564510    -0.22200
C886        C  0.34104380  0.17688186  0.68212245     0.09800
C887        C  0.32753678  0.17845764  0.66831543     0.10200
C888        C  0.31045550  0.16489747  0.67704534    -0.17100
C889        C  0.30660106  0.14978739  0.69911447    -0.27500
C890        C  0.32026034  0.14865110  0.71513171     0.18500
C891        C  0.35911679  0.19003876  0.66959478     0.12500
C892        C  0.33117399  0.19427934  0.64345791    -0.11900
H893        H  0.30004379  0.16588478  0.66522330     0.12800
C894        C  0.31756533  0.13386739  0.74350107    -0.22700
H895        H  0.34785971  0.16121130  0.71672029     0.08400
C896        C  0.36967707  0.20434964  0.69856091     0.04700
C897        C  0.38652930  0.21680995  0.68376383    -0.20000
C898        C  0.39309618  0.21498862  0.64127035    -0.12200
C899        C  0.38245833  0.20056734  0.61234341     0.13400
C900        C  0.36558580  0.18823891  0.62707822    -0.22700
C901        C  0.36326632  0.20626397  0.74525431    -0.05700
H902        H  0.39481525  0.22774885  0.70611754     0.15000
C903        C  0.38816083  0.19798394  0.56527134    -0.15900
H904        H  0.35729872  0.17721519  0.60494748     0.09300
H905        H  0.32508079  0.13907050  0.77572939     0.07200
H906        H  0.32220939  0.12674224  0.72355311     0.08400
H907        H  0.30402009  0.12468697  0.75448604     0.07400
H908        H  0.33836936  0.19582002  0.61067030     0.02300
H909        H  0.33900897  0.20592763  0.66554785     0.02800
H910        H  0.31910865  0.19338890  0.63495439     0.06300
H911        H  0.37326127  0.21816115  0.76364618     0.05200
H912        H  0.35967044  0.19498669  0.76694813    -0.00500
H913        H  0.35179756  0.20695047  0.74126055     0.01000
H914        H  0.38821055  0.18601334  0.56509350     0.04600
H915        H  0.40112362  0.20891098  0.55452940     0.06600
H916        H  0.37898583  0.19660525  0.53894420     0.07400
C917        C  0.23594830  0.21846090  0.21213517    -0.22200
C918        C  0.22311365  0.21300638  0.24662346     0.09800
C919        C  0.21866672  0.19862917  0.27384530     0.10200
C920        C  0.22696935  0.18987387  0.26542296    -0.17100
C921        C  0.23976350  0.19522750  0.23072255    -0.27500
C922        C  0.24431473  0.20975548  0.20363779     0.18500
C923        C  0.21393864  0.22202875  0.25220507     0.12500
C924        C  0.20528170  0.19263566  0.31206509    -0.11900
H925        H  0.22352085  0.17880875  0.28629759     0.12800
C926        C  0.25722881  0.21601840  0.16409988    -0.22700
H927        H  0.23918847  0.22938791  0.19092586     0.08400
C928        C  0.22149129  0.23826820  0.27459266     0.04700
C929        C  0.21209975  0.24608026  0.27945840    -0.20000
C930        C  0.19533198  0.23807101  0.26227306    -0.12200
C931        C  0.18815537  0.22215528  0.23771203     0.13400
C932        C  0.19742376  0.21422876  0.23390380    -0.22700
C933        C  0.23929068  0.24714050  0.29425722    -0.05700
H934        H  0.21772047  0.25830827  0.29787009     0.15000
C935        C  0.17120633  0.21347041  0.21308448    -0.15900
H936        H  0.19184512  0.20196518  0.21564166     0.09300
H937        H  0.26811332  0.22946630  0.17136550     0.07200
H938        H  0.25093616  0.21589474  0.13186927     0.08400
H939        H  0.26250820  0.20796185  0.15739574     0.07400
H940        H  0.19264101  0.18862423  0.29756724     0.02300
H941        H  0.20923680  0.20331777  0.33745200     0.02800
H942        H  0.20362810  0.18145155  0.33069267     0.06300
H943        H  0.24317721  0.25961629  0.31137228     0.05200
H944        H  0.24882146  0.24983522  0.26617314    -0.00500
H945        H  0.23963185  0.23871396  0.32026940     0.01000
H946        H  0.17314174  0.21090979  0.17647555     0.04600
H947        H  0.16573961  0.22146988  0.21216734     0.06600
H948        H  0.16174430  0.20097801  0.22985315     0.07400
C949        C  0.26139976  0.14942381  0.42739048    -0.22200
C950        C  0.24655512  0.13328087  0.43741674     0.09800
C951        C  0.23433778  0.12400344  0.40267389     0.10200
C952        C  0.23743984  0.13102388  0.35812753    -0.17100
C953        C  0.25244703  0.14719785  0.34755816    -0.27500
C954        C  0.26457043  0.15655491  0.38312341     0.18500
C955        C  0.24453327  0.12634980  0.48450356     0.12500
C956        C  0.21801066  0.10678408  0.41277486    -0.11900
H957        H  0.22804856  0.12381961  0.33145997     0.12800
C958        C  0.28107531  0.17390550  0.37513966    -0.22700
H959        H  0.27068352  0.15640380  0.45448490     0.08400
C960        C  0.25085088  0.11602981  0.49485430     0.04700
C961        C  0.25039784  0.11128185  0.54077724    -0.20000
C962        C  0.24437396  0.11710578  0.57723210    -0.12200
C963        C  0.23780424  0.12731448  0.56652204     0.13400
C964        C  0.23785870  0.13166265  0.52018401    -0.22700
C965        C  0.25882422  0.11069102  0.45775478    -0.05700
H966        H  0.25550695  0.10352901  0.54834570     0.15000
C967        C  0.23127434  0.13422106  0.60341328    -0.15900
H968        H  0.23325407  0.13979401  0.51182317     0.09300
H969        H  0.28894859  0.17277840  0.34745149     0.07200
H970        H  0.28904629  0.17893580  0.40665160     0.08400
H971        H  0.27809935  0.18351707  0.36547109     0.07400
H972        H  0.21053835  0.10833946  0.44083571     0.02300
H973        H  0.22112716  0.09742806  0.42385718     0.02800
H974        H  0.20973538  0.10129225  0.38190740     0.06300
H975        H  0.26332649  0.10280018  0.47187164     0.05200
H976        H  0.27010456  0.12235506  0.44173878    -0.00500
H977        H  0.24927703  0.10290347  0.43066347     0.01000
H978        H  0.24182638  0.14289784  0.62738648     0.04600
H979        H  0.22036079  0.12334019  0.62284946     0.06600
H980        H  0.22657718  0.14182745  0.58849550     0.07400
C981        C  0.23365450  0.12427886  0.01983299    -0.22200
C982        C  0.24544300  0.13547579  0.98605236     0.09800
C983        C  0.25883351  0.15231960  0.99908014     0.10200
C984        C  0.26019476  0.15756303  0.04549078    -0.17100
C985        C  0.24865881  0.14636087  0.07985316    -0.27500
C986        C  0.23510730  0.12945958  0.06664976     0.18500
C987        C  0.24431693  0.12917634  0.93763259     0.12500
C988        C  0.27204709  0.16465329  0.96422572    -0.11900
H989        H  0.27068629  0.17046869  0.05508279     0.12800
C990        C  0.22205995  0.11687241  0.10127435    -0.22700
H991        H  0.22342147  0.11134111  0.00953203     0.08400
C992        C  0.25044559  0.11862893  0.92521058     0.04700
C993        C  0.25100876  0.11456318  0.87847938    -0.20000
C994        C  0.24601996  0.12109529  0.84328147    -0.12200
C995        C  0.23981284  0.13170162  0.85583633     0.13400
C996        C  0.23870658  0.13524205  0.90296159    -0.22700
C997        C  0.25705607  0.11221002  0.96106617    -0.05700
H998        H  0.25581018  0.10649310  0.86927042     0.15000
C999        C  0.23532562  0.14053998  0.82136559    -0.15900
H1000       H  0.23425286  0.14357186  0.91265244     0.09300
H1001       H  0.22853461  0.11370923  0.12704333     0.07200
H1002       H  0.21202723  0.10456876  0.08449120     0.08400
H1003       H  0.21550389  0.12256531  0.11905107     0.07400
H1004       H  0.26565686  0.16741959  0.93719983     0.02300
H1005       H  0.27873802  0.15887099  0.94780075     0.02800
H1006       H  0.28193808  0.17714928  0.98047807     0.06300
H1007       H  0.26173508  0.10441113  0.94530291     0.05200
H1008       H  0.24658841  0.10396140  0.98626049    -0.00500
H1009       H  0.26795103  0.12336351  0.97959953     0.01000
H1010       H  0.22145942  0.13575053  0.82526831     0.04600
H1011       H  0.23794581  0.13868586  0.78502846     0.06600
H1012       H  0.24311764  0.15469316  0.82823080     0.07400
C1013       C  0.47169234  0.23918202  0.42119788    -0.22200
C1014       C  0.45725542  0.23031203  0.39290587     0.09800
C1015       C  0.44078824  0.22462688  0.41158116     0.10200
C1016       C  0.43921369  0.22853107  0.45781286    -0.17100
C1017       C  0.45366976  0.23780039  0.48624858    -0.27500
C1018       C  0.47020608  0.24321203  0.46756828     0.18500
C1019       C  0.45946545  0.22723011  0.34348779     0.12500
C1020       C  0.42484827  0.21432251  0.38275048    -0.11900
H1021       H  0.42654296  0.22426225  0.47192759     0.12800
C1022       C  0.48671996  0.25397881  0.49391274    -0.22700
H1023       H  0.48429643  0.24346104  0.40655052     0.08400
C1024       C  0.46012894  0.23800038  0.30865181     0.04700
C1025       C  0.45900078  0.23285826  0.26208359    -0.20000
C1026       C  0.45716540  0.21715792  0.24979586    -0.12200
C1027       C  0.45826040  0.20729027  0.28462541     0.13400
C1028       C  0.45932559  0.21244683  0.33112390    -0.22700
C1029       C  0.46157119  0.25466437  0.32083069    -0.05700
H1030       H  0.45855959  0.24064220  0.23547489     0.15000
C1031       C  0.45836277  0.19135588  0.27321764    -0.15900
H1032       H  0.45928798  0.20451498  0.35814286     0.09300
H1033       H  0.49582789  0.26584525  0.47411351     0.07200
H1034       H  0.49269199  0.24648182  0.49809499     0.08400
H1035       H  0.48508113  0.25832296  0.52836735     0.07400
H1036       H  0.42354806  0.20223054  0.37022681     0.02300
H1037       H  0.42573387  0.22195424  0.35257070     0.02800
H1038       H  0.41298089  0.21074153  0.40286539     0.06300
H1039       H  0.46203446  0.26160579  0.28947974     0.05200
H1040       H  0.47356164  0.26325199  0.34040028    -0.00500
H1041       H  0.45033263  0.25205107  0.34245133     0.01000
H1042       H  0.46866928  0.19451145  0.24711592     0.04600
H1043       H  0.44569074  0.18090145  0.25975374     0.06600
H1044       H  0.46088906  0.18628013  0.30422554     0.07400
C1045       C  0.46553288  0.23096402  0.80784204    -0.22200
C1046       C  0.45576615  0.23275703  0.84269947     0.09800
C1047       C  0.44564603  0.23920459  0.83137890     0.10200
C1048       C  0.44557856  0.24381814  0.78563153    -0.17100
C1049       C  0.45504183  0.24177270  0.75017341    -0.27500
C1050       C  0.46518752  0.23523205  0.76157844     0.18500
C1051       C  0.45533761  0.22688584  0.89043555     0.12500
C1052       C  0.43441506  0.24066601  0.86733933    -0.11900
H1053       H  0.43758006  0.24856560  0.77734424     0.12800
C1054       C  0.47568933  0.23272852  0.72555181    -0.22700
H1055       H  0.47317574  0.22587763  0.81679257     0.08400
C1056       C  0.44480640  0.20926200  0.90194981     0.04700
C1057       C  0.44304544  0.20438505  0.94835302    -0.20000
C1058       C  0.45144752  0.21668522  0.98405722    -0.12200
C1059       C  0.46248007  0.23438314  0.97215366     0.13400
C1060       C  0.46427102  0.23921174  0.92546647    -0.22700
C1061       C  0.43494737  0.19561149  0.86541320    -0.05700
H1062       H  0.43473928  0.19081171  0.95676470     0.15000
C1063       C  0.47205738  0.24834249  0.00814001    -0.15900
H1064       H  0.47229505  0.25273709  0.91627385     0.09300
H1065       H  0.46704301  0.22286284  0.69973673     0.07200
H1066       H  0.48332699  0.22818018  0.74101222     0.08400
H1067       H  0.48482078  0.24516089  0.70804784     0.07400
H1068       H  0.44251358  0.24976095  0.89523358     0.02300
H1069       H  0.42509826  0.22777169  0.88239442     0.02800
H1070       H  0.42695851  0.24552078  0.85244431     0.06300
H1071       H  0.42703598  0.18247354  0.88039210     0.05200
H1072       H  0.44407871  0.19567491  0.83966868    -0.00500
H1073       H  0.42616497  0.19823036  0.84765590     0.01000
H1074       H  0.47983704  0.26137841  0.99250279     0.04600
H1075       H  0.48102326  0.24615493  0.02656540     0.06600
H1076       H  0.46276130  0.24834203  0.03315781     0.07400
C1077       C  0.36055248  0.17361645  0.13267443    -0.22200
C1078       C  0.35980459  0.18433072  0.16642980     0.09800
C1079       C  0.37496106  0.19686236  0.18930903     0.10200
C1080       C  0.39059794  0.19855030  0.17748583    -0.17100
C1081       C  0.39149726  0.18795461  0.14341189    -0.27500
C1082       C  0.37620928  0.17532811  0.12048017     0.18500
C1083       C  0.34303497  0.18230012  0.17711831     0.12500
C1084       C  0.37461768  0.20849094  0.22606385    -0.11900
H1085       H  0.40223607  0.20819795  0.19518168     0.12800
C1086       C  0.37586731  0.16400114  0.08160757    -0.22700
H1087       H  0.34885908  0.16406074  0.11501226     0.08400
C1088       C  0.33747881  0.19129931  0.15237174     0.04700
C1089       C  0.32139552  0.18877728  0.16341671    -0.20000
C1090       C  0.31073939  0.17742119  0.19856706    -0.12200
C1091       C  0.31669367  0.16899076  0.22467686     0.13400
C1092       C  0.33265822  0.17136649  0.21311937    -0.22700
C1093       C  0.34845166  0.20339598  0.11401308    -0.05700
H1094       H  0.31688421  0.19528521  0.14355947     0.15000
C1095       C  0.30695396  0.15793407  0.26598570    -0.15900
H1096       H  0.33716219  0.16479514  0.23273929     0.09300
H1097       H  0.37040936  0.16592866  0.05045135     0.07200
H1098       H  0.36755444  0.15023389  0.09181829     0.08400
H1099       H  0.38873550  0.16682898  0.07147704     0.07400
H1100       H  0.36573677  0.20057753  0.25473533     0.02300
H1101       H  0.37010071  0.21624596  0.21117157     0.02800
H1102       H  0.38758750  0.21755403  0.24067172     0.06300
H1103       H  0.34221591  0.20939884  0.09816713     0.05200
H1104       H  0.35066072  0.19619454  0.08655002    -0.00500
H1105       H  0.36106788  0.21390512  0.12775113     0.01000
H1106       H  0.30311183  0.14443488  0.25894989     0.04600
H1107       H  0.29529450  0.15788842  0.27555333     0.06600
H1108       H  0.31542790  0.16297888  0.29653822     0.07400
C1109       C  0.82682401  0.99827124  0.21918257    -0.22200
C1110       C  0.81793661  0.00606231  0.23204974     0.09800
C1111       C  0.80160258  0.99616436  0.25388802     0.10200
C1112       C  0.79450847  0.97861391  0.26248631    -0.17100
C1113       C  0.80347258  0.97075543  0.25033276    -0.27500
C1114       C  0.81989441  0.98078022  0.22821030     0.18500
C1115       C  0.82632222  0.02477937  0.22363852     0.12500
C1116       C  0.79182937  0.00421575  0.26885421    -0.11900
H1117       H  0.78195885  0.97104785  0.27937585     0.12800
C1118       C  0.83011276  0.97320253  0.21307364    -0.22700
H1119       H  0.83936409  0.00602731  0.20230813     0.08400
C1120       C  0.83968434  0.03726690  0.25207367     0.04700
C1121       C  0.84767365  0.05484037  0.24215970    -0.20000
C1122       C  0.84254154  0.06025642  0.20469195    -0.12200
C1123       C  0.82924576  0.04770385  0.17579751     0.13400
C1124       C  0.82120056  0.03010100  0.18600104    -0.22700
C1125       C  0.84535292  0.03204462  0.29323588    -0.05700
H1126       H  0.85791262  0.06445413  0.26410168     0.15000
C1127       C  0.82376629  0.05220724  0.13278936    -0.15900
H1128       H  0.81109612  0.02041989  0.16385045     0.09300
H1129       H  0.83364924  0.96884800  0.24364800     0.07200
H1130       H  0.84228580  0.98280296  0.19475819     0.08400
H1131       H  0.82239776  0.96215005  0.18902089     0.07400
H1132       H  0.78904317  0.00925574  0.23829122     0.02300
H1133       H  0.79964869  0.01501474  0.29352188     0.02800
H1134       H  0.77936918  0.99473304  0.28619098     0.06300
H1135       H  0.85570545  0.04345707  0.31240126     0.05200
H1136       H  0.85039937  0.02407913  0.28174004    -0.00500
H1137       H  0.83423725  0.02443704  0.31735824     0.01000
H1138       H  0.82526671  0.04550908  0.10248545     0.04600
H1139       H  0.83147777  0.06618391  0.12516482     0.06600
H1140       H  0.81000177  0.04783084  0.13639627     0.07400
C1141       C  0.67365581  0.83104994  0.36533041    -0.22200
C1142       C  0.67583035  0.84218623  0.32998507     0.09800
C1143       C  0.66130065  0.83982178  0.30807919     0.10200
C1144       C  0.64479109  0.82637481  0.32251091    -0.17100
C1145       C  0.64253459  0.81508942  0.35775971    -0.27500
C1146       C  0.65717414  0.81760220  0.37993694     0.18500
C1147       C  0.69351837  0.85623703  0.31662437     0.12500
C1148       C  0.66325839  0.85134114  0.26919625    -0.11900
H1149       H  0.63357128  0.82444397  0.30556927     0.12800
C1150       C  0.65603666  0.80698859  0.42027204    -0.22700
H1151       H  0.68492902  0.83306630  0.38218373     0.08400
C1152       C  0.70180576  0.87256146  0.33870476     0.04700
C1153       C  0.71890311  0.88521201  0.32625647    -0.20000
C1154       C  0.72791170  0.88177608  0.29273519    -0.12200
C1155       C  0.71934405  0.86555327  0.26952730     0.13400
C1156       C  0.70228060  0.85293179  0.28221427    -0.22700
C1157       C  0.69272513  0.87645528  0.37604833    -0.05700
H1158       H  0.72547360  0.89763304  0.34397898     0.15000
C1159       C  0.72746983  0.86118111  0.23042507    -0.15900
H1160       H  0.69571744  0.84040069  0.26504620     0.09300
H1161       H  0.66312870  0.81571620  0.44987802     0.07200
H1162       H  0.66204573  0.79975072  0.41039649     0.08400
H1163       H  0.64268475  0.79770319  0.43266018     0.07400
H1164       H  0.67080056  0.85034634  0.24026342     0.02300
H1165       H  0.67008824  0.86496477  0.28146922     0.02800
H1166       H  0.65056284  0.84766632  0.25575504     0.06300
H1167       H  0.70111380  0.88981725  0.38994641     0.05200
H1168       H  0.68890774  0.86733647  0.40506630    -0.00500
H1169       H  0.68101438  0.87506802  0.36199523     0.01000
H1170       H  0.72881248  0.85052817  0.24098655     0.04600
H1171       H  0.74024921  0.87225418  0.21912388     0.06600
H1172       H  0.71905389  0.85685304  0.19980211     0.07400
C1173       C  0.57346813  0.79725834  0.20218292    -0.22200
C1174       C  0.57711962  0.78936143  0.16590358     0.09800
C1175       C  0.57981196  0.77619938  0.17589540     0.10200
C1176       C  0.57987919  0.77198245  0.22213442    -0.17100
C1177       C  0.57744624  0.78069385  0.25903260    -0.27500
C1178       C  0.57350933  0.79307105  0.24866808     0.18500
C1179       C  0.58017392  0.79645642  0.11849253     0.12500
C1180       C  0.58315168  0.76696437  0.13774022    -0.11900
H1181       H  0.58256743  0.76226744  0.22942894     0.12800
C1182       C  0.56998710  0.80242937  0.28601136    -0.22700
H1183       H  0.57129921  0.80729048  0.19409611     0.08400
C1184       C  0.56681846  0.79057183  0.08649051     0.04700
C1185       C  0.57077352  0.79747864  0.04160983    -0.20000
C1186       C  0.58775318  0.81038984  0.02825714    -0.12200
C1187       C  0.60108716  0.81639024  0.06091117     0.13400
C1188       C  0.59709423  0.80926849  0.10537207    -0.22700
C1189       C  0.54845304  0.77704661  0.09982457    -0.05700
H1190       H  0.56050436  0.79291206  0.01699178     0.15000
C1191       C  0.61966221  0.82994540  0.04912376    -0.15900
H1192       H  0.60726788  0.81367176  0.13022205     0.09300
H1193       H  0.56687844  0.81137529  0.27137839     0.07200
H1194       H  0.58152151  0.81023345  0.30780840     0.08400
H1195       H  0.55878729  0.79293894  0.30767451     0.07400
H1196       H  0.59498441  0.77635537  0.11789611     0.02300
H1197       H  0.57204731  0.76048364  0.11406155     0.02800
H1198       H  0.58496205  0.75697123  0.15146888     0.06300
H1199       H  0.53953152  0.77394853  0.07091448     0.05200
H1200       H  0.54429599  0.78178701  0.12961879    -0.00500
H1201       H  0.54740503  0.76498772  0.10969541     0.01000
H1202       H  0.62113406  0.84241898  0.04199269     0.04600
H1203       H  0.62394798  0.82571487  0.01844405     0.06600
H1204       H  0.62835502  0.83225540  0.07800035     0.07400
C1205       C  0.60087983  0.79934584  0.60189772    -0.22200
C1206       C  0.58536851  0.79694448  0.61811063     0.09800
C1207       C  0.57159112  0.79094973  0.58754268     0.10200
C1208       C  0.57361458  0.78736292  0.54118216    -0.17100
C1209       C  0.58908903  0.78951973  0.52469924    -0.27500
C1210       C  0.60296970  0.79568144  0.55574689     0.18500
C1211       C  0.58428668  0.80153011  0.66697075     0.12500
C1212       C  0.55474798  0.78823753  0.60403330    -0.11900
H1213       H  0.56294562  0.78263484  0.51786087     0.12800
C1214       C  0.62015734  0.79875126  0.54090244    -0.22700
H1215       H  0.61143446  0.80414885  0.62569707     0.08400
C1216       C  0.58067996  0.79008827  0.70336629     0.04700
C1217       C  0.58168892  0.79578106  0.74939448    -0.20000
C1218       C  0.58655941  0.81279833  0.75984886    -0.12200
C1219       C  0.58963063  0.82406564  0.72290297     0.13400
C1220       C  0.58833927  0.81819401  0.67707452    -0.22700
C1221       C  0.57607585  0.77199129  0.69350906    -0.05700
H1222       H  0.57932799  0.78709498  0.77727642     0.15000
C1223       C  0.59439648  0.84233911  0.73095994    -0.15900
H1224       H  0.59107189  0.82685438  0.64873504     0.09300
H1225       H  0.62959727  0.80435491  0.56934194     0.07200
H1226       H  0.62571567  0.80795238  0.51171001     0.08400
H1227       H  0.61856798  0.78634565  0.53043411     0.07400
H1228       H  0.55690758  0.80065676  0.61698854     0.02300
H1229       H  0.54918330  0.77868718  0.63240497     0.02800
H1230       H  0.54521722  0.78331945  0.57587097     0.06300
H1231       H  0.57357705  0.76467089  0.72582390     0.05200
H1232       H  0.58682537  0.77242306  0.67425995    -0.00500
H1233       H  0.56427346  0.76493523  0.67237849     0.01000
H1234       H  0.59507694  0.84868765  0.69814117     0.04600
H1235       H  0.60729309  0.85024938  0.74681335     0.06600
H1236       H  0.58456208  0.84232664  0.75377593     0.07400
C1237       C  0.79724372  0.88251309  0.98737961    -0.22200
C1238       C  0.79612139  0.89651764  0.00063069     0.09800
C1239       C  0.79573270  0.90689587  0.96637438     0.10200
C1240       C  0.79514399  0.90223245  0.91954565    -0.17100
C1241       C  0.79489332  0.88739967  0.90637363    -0.27500
C1242       C  0.79693594  0.87797911  0.94060401     0.18500
C1243       C  0.79376755  0.89918007  0.05033265     0.12500
C1244       C  0.79519181  0.92244416  0.97945140    -0.11900
H1245       H  0.79377042  0.90957221  0.89340820     0.12800
C1246       C  0.79896716  0.86319418  0.92917572    -0.22700
H1247       H  0.79796689  0.87482793  0.01378723     0.08400
C1248       C  0.77715684  0.89049275  0.07095907     0.04700
C1249       C  0.77517430  0.89429105  0.11704283    -0.20000
C1250       C  0.78943984  0.90641664  0.14333266    -0.12200
C1251       C  0.80616798  0.91496811  0.12268600     0.13400
C1252       C  0.80808592  0.91107896  0.07651833    -0.22700
C1253       C  0.76151191  0.87733264  0.04407231    -0.05700
H1254       H  0.76237294  0.88776371  0.13268192     0.15000
C1255       C  0.82219388  0.92892274  0.14684591    -0.15900
H1256       H  0.82080227  0.91779681  0.06032112     0.09300
H1257       H  0.78771270  0.85099370  0.94311129     0.07200
H1258       H  0.81085419  0.86567031  0.94532724     0.08400
H1259       H  0.80033181  0.86155235  0.89158919     0.07400
H1260       H  0.80687176  0.93182083  0.99920864     0.02300
H1261       H  0.78354564  0.91842996  0.00115773     0.02800
H1262       H  0.79478981  0.92907876  0.94851395     0.06300
H1263       H  0.74947596  0.87180730  0.06523606     0.05200
H1264       H  0.76282787  0.86656589  0.03261821    -0.00500
H1265       H  0.76024554  0.88345245  0.01326787     0.01000
H1266       H  0.83117165  0.92463267  0.15049649     0.04600
H1267       H  0.81967646  0.93247197  0.18145398     0.06600
H1268       H  0.82867872  0.94085274  0.12584752     0.07400
C1269       C  0.80370403  0.90952270  0.58260301    -0.22200
C1270       C  0.79156746  0.89880369  0.54933076     0.09800
C1271       C  0.77746537  0.88232820  0.56218656     0.10200
C1272       C  0.77576311  0.87691061  0.60801941    -0.17100
C1273       C  0.78775668  0.88756653  0.64193497    -0.27500
C1274       C  0.80198988  0.90415628  0.62878883     0.18500
C1275       C  0.79319370  0.90521521  0.50158183     0.12500
C1276       C  0.76400730  0.87055197  0.52757889    -0.11900
H1277       H  0.76480424  0.86424125  0.61740371     0.12800
C1278       C  0.81544309  0.91634562  0.66281154    -0.22700
H1279       H  0.81443699  0.92219765  0.57242878     0.08400
C1280       C  0.78668549  0.91532075  0.49063834     0.04700
C1281       C  0.78630613  0.91918660  0.44424447    -0.20000
C1282       C  0.79200794  0.91295467  0.40800013    -0.12200
C1283       C  0.79920064  0.90336245  0.41937157     0.13400
C1284       C  0.79976473  0.89971781  0.46605841    -0.22700
C1285       C  0.77952673  0.92147972  0.52785639    -0.05700
H1286       H  0.78087728  0.92661253  0.43626580     0.15000
C1287       C  0.80598766  0.89657543  0.38288460    -0.15900
H1288       H  0.80475336  0.89196189  0.47486284     0.09300
H1289       H  0.80937438  0.91973457  0.69092140     0.07200
H1290       H  0.82567442  0.92857494  0.64625326     0.08400
H1291       H  0.82172673  0.91021370  0.67755003     0.07400
H1292       H  0.77007527  0.86744564  0.49880917     0.02300
H1293       H  0.75794392  0.87700352  0.51347581     0.02800
H1294       H  0.75366830  0.85820478  0.54339827     0.06300
H1295       H  0.77474067  0.92907705  0.51342009     0.05200
H1296       H  0.78974062  0.92983569  0.55299819    -0.00500
H1297       H  0.76860807  0.91021733  0.54621877     0.01000
H1298       H  0.81159624  0.88988410  0.39831465     0.04600
H1299       H  0.81628224  0.90744416  0.36198188     0.06600
H1300       H  0.79535771  0.88709454  0.36020171     0.07400
C1301       C  0.70742172  0.86374092  0.80505621    -0.22200
C1302       C  0.69689818  0.85004265  0.83503332     0.09800
C1303       C  0.70255797  0.83962948  0.85028525     0.10200
C1304       C  0.71871981  0.84320341  0.83520743    -0.17100
C1305       C  0.72943177  0.85706838  0.80557523    -0.27500
C1306       C  0.72365042  0.86746063  0.79020324     0.18500
C1307       C  0.67968214  0.84646700  0.84823262     0.12500
C1308       C  0.69162469  0.82490117  0.88286979    -0.11900
H1309       H  0.72314269  0.83530749  0.84731156     0.12800
C1310       C  0.73419722  0.88215009  0.75711779    -0.22700
H1311       H  0.70283313  0.87151713  0.79310294     0.08400
C1312       C  0.67759134  0.85636586  0.88234289     0.04700
C1313       C  0.66108587  0.85306727  0.89153939    -0.20000
C1314       C  0.64662987  0.84003173  0.86753808    -0.12200
C1315       C  0.64885323  0.83028207  0.83273974     0.13400
C1316       C  0.66532188  0.83350765  0.82413443    -0.22700
C1317       C  0.69274229  0.87022727  0.90937590    -0.05700
H1318       H  0.65941346  0.86053105  0.91805662     0.15000
C1319       C  0.63452831  0.81701070  0.80213763    -0.15900
H1320       H  0.66708279  0.82616816  0.79736800     0.09300
H1321       H  0.74627080  0.89245953  0.77371403     0.07200
H1322       H  0.72714458  0.88807454  0.74662355     0.08400
H1323       H  0.73732293  0.87734092  0.72535493     0.07400
H1324       H  0.67919145  0.81526124  0.86648781     0.02300
H1325       H  0.68904564  0.82987326  0.91523483     0.02800
H1326       H  0.69809302  0.81824274  0.89207929     0.06300
H1327       H  0.68883813  0.87656659  0.93528331     0.05200
H1328       H  0.70248029  0.88030246  0.88557743    -0.00500
H1329       H  0.69869395  0.86446291  0.92797099     0.01000
H1330       H  0.63850077  0.82028891  0.76531532     0.04600
H1331       H  0.62232866  0.81637378  0.80680039     0.06600
H1332       H  0.63203181  0.80404763  0.80869521     0.07400
C1333       C  0.84955342  0.66301907  0.18704647    -0.22200
C1334       C  0.84819201  0.67575691  0.16654428     0.09800
C1335       C  0.83388749  0.67093669  0.13900181     0.10200
C1336       C  0.82119399  0.65334937  0.13239206    -0.17100
C1337       C  0.82270785  0.64050906  0.15188346    -0.27500
C1338       C  0.83700385  0.64540388  0.17999334     0.18500
C1339       C  0.86200860  0.69410599  0.17411672     0.12500
C1340       C  0.83208465  0.68436415  0.11653095    -0.11900
H1341       H  0.81024084  0.64960267  0.11097027     0.12800
C1342       C  0.83893691  0.63222568  0.20363458    -0.22700
H1343       H  0.86056102  0.66692097  0.20840068     0.08400
C1344       C  0.86227366  0.70313906  0.21436174     0.04700
C1345       C  0.87557926  0.72058314  0.21975072    -0.20000
C1346       C  0.88862660  0.72911233  0.18591411    -0.12200
C1347       C  0.88816530  0.72010236  0.14514712     0.13400
C1348       C  0.87493165  0.70261568  0.14009645    -0.22700
C1349       C  0.84844702  0.69439233  0.25130264    -0.05700
H1350       H  0.87589289  0.72757896  0.25072974     0.15000
C1351       C  0.90081354  0.72859185  0.10537590    -0.15900
H1352       H  0.87449319  0.69562160  0.10896255     0.09300
H1353       H  0.85028568  0.63844473  0.22652111     0.07200
H1354       H  0.84079381  0.62438013  0.17752653     0.08400
H1355       H  0.82728377  0.62365581  0.22524243     0.07400
H1356       H  0.84315738  0.69221282  0.09249266     0.02300
H1357       H  0.83179996  0.69297028  0.14343390     0.02800
H1358       H  0.82004709  0.67839012  0.09644669     0.06300
H1359       H  0.85052415  0.70336960  0.28037023     0.05200
H1360       H  0.84841894  0.68333280  0.26542182    -0.00500
H1361       H  0.83565361  0.68959079  0.23639715     0.01000
H1362       H  0.90805984  0.72231764  0.09985595     0.04600
H1363       H  0.91018673  0.74262697  0.11059878     0.06600
H1364       H  0.89366950  0.72699144  0.07346253     0.07400
C1365       C  0.80399183  0.56520916  0.42045153    -0.22200
C1366       C  0.80669413  0.57905960  0.39430667     0.09800
C1367       C  0.81544795  0.59581460  0.41407344     0.10200
C1368       C  0.82133379  0.59834090  0.45959789    -0.17100
C1369       C  0.81859648  0.58449631  0.48611215    -0.27500
C1370       C  0.80997432  0.56769841  0.46595609     0.18500
C1371       C  0.80059658  0.57598390  0.34592592     0.12500
C1372       C  0.81866643  0.61104169  0.38691600    -0.11900
H1373       H  0.82808800  0.61122936  0.47468936     0.12800
C1374       C  0.80757207  0.55223038  0.48998476    -0.22700
H1375       H  0.79746995  0.55240654  0.40487088    -0.13200
C1376       C  0.81114362  0.57697317  0.30841372     0.04700
C1377       C  0.80597664  0.57664535  0.26296021    -0.20000
C1378       C  0.79050379  0.57540417  0.25417241    -0.12200
C1379       C  0.77927396  0.57292795  0.29189715     0.13400
C1380       C  0.78453200  0.57333098  0.33728625    -0.22700
C1381       C  0.82808835  0.57891162  0.31649799    -0.05700
H1382       H  0.81451842  0.57829862  0.23431335     0.15000
C1383       C  0.76171089  0.56975735  0.28481711    -0.15900
H1384       H  0.77634075  0.57218857  0.36634064     0.09300
H1385       H  0.81379229  0.54685556  0.46887818     0.07200
H1386       H  0.79359559  0.54216006  0.49367350     0.08400
H1387       H  0.81328893  0.55518553  0.52464426     0.07400
H1388       H  0.80618636  0.60894330  0.37685299     0.02300
H1389       H  0.82640797  0.61258766  0.35524195     0.02800
H1390       H  0.82580737  0.62326008  0.40732930     0.06300
H1391       H  0.83480776  0.57955996  0.28346923     0.05200
H1392       H  0.82581608  0.56766602  0.33615880    -0.00500
H1393       H  0.83666561  0.59094468  0.33656177     0.01000
H1394       H  0.75420203  0.56661141  0.31779583     0.04600
H1395       H  0.75427988  0.55867988  0.26060028     0.06600
H1396       H  0.76294459  0.58144728  0.27088832     0.07400
C1397       C  0.82682108  0.58133045  0.83412416    -0.22200
C1398       C  0.81148236  0.58024185  0.84558062     0.09800
C1399       C  0.80088525  0.57924415  0.80991871     0.10200
C1400       C  0.80628257  0.58019973  0.76357874    -0.17100
C1401       C  0.82215480  0.58235338  0.75198391    -0.27500
C1402       C  0.83230405  0.58236589  0.78779379     0.18500
C1403       C  0.80747280  0.58162346  0.89498031     0.12500
C1404       C  0.78397824  0.57738770  0.82085902    -0.11900
H1405       H  0.79839632  0.58003443  0.73636345     0.12800
C1406       C  0.84880484  0.58326702  0.77761406    -0.22700
H1407       H  0.83479544  0.58190228  0.86171155     0.08400
C1408       C  0.80045214  0.56756074  0.92544598     0.04700
C1409       C  0.79679697  0.56969843  0.97173597    -0.20000
C1410       C  0.79985713  0.58556638  0.98823485    -0.12200
C1411       C  0.80710486  0.59972910  0.95739377     0.13400
C1412       C  0.81087708  0.59753638  0.91141119    -0.22700
C1413       C  0.79656021  0.55024952  0.90885066    -0.05700
H1414       H  0.79122780  0.55881198  0.99489986     0.15000
C1415       C  0.81118029  0.61731164  0.97231561    -0.15900
H1416       H  0.81641694  0.60829971  0.88777687     0.09300
H1417       H  0.85428382  0.58179708  0.80945596     0.07200
H1418       H  0.85866065  0.59595148  0.76252014     0.08400
H1419       H  0.84627946  0.57270763  0.75319474     0.07400
H1420       H  0.78622741  0.58872928  0.84130256     0.02300
H1421       H  0.77551374  0.56546273  0.84111438     0.02800
H1422       H  0.77712611  0.57649449  0.78897254     0.06300
H1423       H  0.79080816  0.54052471  0.93680969     0.05200
H1424       H  0.80862158  0.55149241  0.89646913    -0.00500
H1425       H  0.78729585  0.54543154  0.88005874     0.01000
H1426       H  0.81761797  0.62692063  0.94420817     0.04600
H1427       H  0.81999247  0.62217732  0.00215475     0.06600
H1428       H  0.79911325  0.61654845  0.98186371     0.07400
C1429       C  0.79801351  0.81159203  0.73595845    -0.22200
C1430       C  0.81499163  0.81920231  0.75079165     0.09800
C1431       C  0.82348396  0.83564565  0.77235235     0.10200
C1432       C  0.81500486  0.84432572  0.77729290    -0.17100
C1433       C  0.79814832  0.83700849  0.76142416    -0.27500
C1434       C  0.78941646  0.82022536  0.74118517     0.18500
C1435       C  0.82409538  0.81029346  0.74121646     0.12500
C1436       C  0.84149813  0.84404373  0.79041522    -0.11900
H1437       H  0.82168923  0.85701900  0.79350465     0.12800
C1438       C  0.77131391  0.81151525  0.72367650    -0.22700
H1439       H  0.79160414  0.79897751  0.71932981     0.08400
C1440       C  0.82049899  0.79577942  0.76649436     0.04700
C1441       C  0.83033064  0.78861406  0.75761849    -0.20000
C1442       C  0.84400523  0.79595486  0.72507220    -0.12200
C1443       C  0.84736863  0.81034352  0.69925741     0.13400
C1444       C  0.83717752  0.81710542  0.70720387    -0.22700
C1445       C  0.80672989  0.78825354  0.80384723    -0.05700
H1446       H  0.82774365  0.77761656  0.77744676     0.15000
C1447       C  0.86152858  0.81857871  0.66292689    -0.15900
H1448       H  0.83971997  0.82813474  0.68759267     0.09300
H1449       H  0.76233335  0.80941649  0.75278127     0.07200
H1450       H  0.76677878  0.79869982  0.70770201     0.08400
H1451       H  0.77079159  0.81964254  0.69703476     0.07400
H1452       H  0.85067659  0.84651764  0.76155463     0.02300
H1453       H  0.84181358  0.83543934  0.81586820     0.02800
H1454       H  0.84596442  0.85661400  0.80784909     0.06300
H1455       H  0.80592165  0.77724358  0.82115714     0.05200
H1456       H  0.79398048  0.78348857  0.78876969    -0.00500
H1457       H  0.80963734  0.79831108  0.83046011     0.01000
H1458       H  0.86156659  0.82896633  0.64437081     0.04600
H1459       H  0.85974076  0.80870115  0.63699423     0.06600
H1460       H  0.87428902  0.82453835  0.67924359     0.07400
C1461       C  0.89696846  0.77527805  0.41255017    -0.22200
C1462       C  0.90620553  0.79168741  0.43334625     0.09800
C1463       C  0.91775620  0.80623504  0.40637587     0.10200
C1464       C  0.92020701  0.80391488  0.35920404    -0.17100
C1465       C  0.91139191  0.78735670  0.33875332    -0.27500
C1466       C  0.89913473  0.77293673  0.36547018     0.18500
C1467       C  0.90325799  0.79300954  0.48346327     0.12500
C1468       C  0.92774255  0.82406762  0.42764945    -0.11900
H1469       H  0.92956354  0.81495373  0.33874580     0.12800
C1470       C  0.88772603  0.75496960  0.34542333    -0.22700
H1471       H  0.88782026  0.76419475  0.43323562     0.08400
C1472       C  0.88955714  0.79435645  0.49953055     0.04700
C1473       C  0.88554322  0.79290885  0.54702898    -0.20000
C1474       C  0.89472526  0.78986439  0.57890066    -0.12200
C1475       C  0.90867159  0.78874077  0.56267884     0.13400
C1476       C  0.91286838  0.79058292  0.51519053    -0.22700
C1477       C  0.87878029  0.79667941  0.46630951    -0.05700
H1478       H  0.87478801  0.79361609  0.55924734     0.15000
C1479       C  0.91868084  0.78438645  0.59313733    -0.15900
H1480       H  0.92315663  0.78919097  0.50245467     0.09300
H1481       H  0.87403029  0.75002636  0.35387934     0.07200
H1482       H  0.89097325  0.74622824  0.36067327     0.08400
H1483       H  0.88874287  0.75446775  0.30728556     0.07400
H1484       H  0.93589251  0.82450812  0.45572799     0.02300
H1485       H  0.91871787  0.82739467  0.44225439     0.02800
H1486       H  0.93627458  0.83400967  0.40179881     0.06300
H1487       H  0.86852084  0.79744210  0.48456017     0.05200
H1488       H  0.87249568  0.78558249  0.44168878    -0.00500
H1489       H  0.88705296  0.80878879  0.44666605     0.01000
H1490       H  0.91771710  0.77256989  0.57948732     0.04600
H1491       H  0.91403195  0.78181487  0.62941290     0.06600
H1492       H  0.93246456  0.79520049  0.59278590     0.07400
C1493       C  0.91515223  0.80667964  0.90485202    -0.22200
C1494       C  0.90803503  0.79263244  0.93496082     0.09800
C1495       C  0.89499074  0.77605315  0.91915867     0.10200
C1496       C  0.88920432  0.77389151  0.87374865    -0.17100
C1497       C  0.89624724  0.78785179  0.84314815    -0.27500
C1498       C  0.90946054  0.80451713  0.85900530     0.18500
C1499       C  0.91422503  0.79524602  0.98311106     0.12500
C1500       C  0.88725941  0.76057463  0.95022220    -0.11900
H1501       H  0.87915266  0.76108967  0.86196804     0.12800
C1502       C  0.91730656  0.82011893  0.82847498    -0.22700
H1503       H  0.92517143  0.81937376  0.91737532     0.08400
C1504       C  0.92814315  0.79392527  0.99423855     0.04700
C1505       C  0.93170262  0.79350212  0.04087553    -0.20000
C1506       C  0.92159570  0.79425650  0.07691295    -0.12200
C1507       C  0.90810406  0.79641371  0.06546209     0.13400
C1508       C  0.90469069  0.79697169  0.01868163    -0.22700
C1509       C  0.93884336  0.79235657  0.95680768    -0.05700
H1510       H  0.94210493  0.79196252  0.04912411     0.15000
C1511       C  0.89662674  0.79724394  0.10184841    -0.15900
H1512       H  0.89397477  0.79791233  0.00966884     0.09300
H1513       H  0.92399486  0.81851351  0.79834500     0.07200
H1514       H  0.92694796  0.83212923  0.84714242     0.08400
H1515       H  0.90707399  0.82180211  0.81631147     0.07400
H1516       H  0.88112426  0.76253840  0.98109708     0.02300
H1517       H  0.89749767  0.75875964  0.96152508     0.02800
H1518       H  0.87727200  0.74853038  0.93235426     0.06300
H1519       H  0.94917849  0.79130179  0.97135676     0.05200
H1520       H  0.94500580  0.80394556  0.93453964    -0.00500
H1521       H  0.93053200  0.78065506  0.93528959     0.01000
H1522       H  0.88671232  0.79876360  0.08639908     0.04600
H1523       H  0.90446937  0.80849425  0.12520721     0.06600
H1524       H  0.88976819  0.78512382  0.12205501     0.07400
C1525       C  0.86953711  0.70809746  0.64182329    -0.22200
C1526       C  0.85619112  0.69383139  0.66570053     0.09800
C1527       C  0.84642908  0.69620507  0.69965195     0.10200
C1528       C  0.85029951  0.71293793  0.70905100    -0.17100
C1529       C  0.86395662  0.72733889  0.68594202    -0.27500
C1530       C  0.87361215  0.72484998  0.65156279     0.18500
C1531       C  0.85334437  0.67667120  0.65618861     0.12500
C1532       C  0.83209547  0.68110432  0.72622489    -0.11900
H1533       H  0.84287129  0.71483208  0.73520353     0.12800
C1534       C  0.88794222  0.73969102  0.62415800    -0.22700
H1535       H  0.87692937  0.70609401  0.61578024     0.08400
C1536       C  0.84198349  0.66545508  0.62177819     0.04700
C1537       C  0.83993504  0.64939119  0.61410476    -0.20000
C1538       C  0.84916999  0.64442574  0.63962793    -0.12200
C1539       C  0.86040686  0.65565180  0.67456814     0.13400
C1540       C  0.86247103  0.67171618  0.68192530    -0.22700
C1541       C  0.83214687  0.67049621  0.59308341    -0.05700
H1542       H  0.83120189  0.64071399  0.58769789     0.15000
C1543       C  0.86978867  0.65094633  0.70637516    -0.15900
H1544       H  0.87108174  0.68037298  0.70857927     0.09300
H1545       H  0.89330679  0.73520199  0.59683598     0.07200
H1546       H  0.89865282  0.74863969  0.64733935     0.08400
H1547       H  0.88301999  0.74673544  0.60705609     0.07400
H1548       H  0.83731656  0.67471699  0.74525884     0.02300
H1549       H  0.82212077  0.67161683  0.70204546     0.02800
H1550       H  0.82581662  0.68521294  0.75172889     0.06300
H1551       H  0.82380670  0.66021195  0.56769034     0.05200
H1552       H  0.84132392  0.68245207  0.57372936    -0.00500
H1553       H  0.82380133  0.67287313  0.61580795     0.01000
H1554       H  0.88391547  0.66015093  0.70161364     0.04600
H1555       H  0.86668392  0.63767089  0.70094517     0.06600
H1556       H  0.86620790  0.65183145  0.74280069     0.07400
C1557       C  0.19985800  0.99861685  0.79737916    -0.22200
C1558       C  0.21346448  0.00550246  0.76503726     0.09800
C1559       C  0.21879575  0.99502738  0.74566147     0.10200
C1560       C  0.20965913  0.97747077  0.75719316    -0.17100
C1561       C  0.19527845  0.97022163  0.78746527    -0.27500
C1562       C  0.19067523  0.98110053  0.80902096     0.18500
C1563       C  0.22160708  0.02369090  0.75152738     0.12500
C1564       C  0.23388150  0.00233580  0.71225495    -0.11900
H1565       H  0.21335413  0.96925021  0.74102983     0.12800
C1566       C  0.17627391  0.97451983  0.84459281    -0.22700
H1567       H  0.19617155  0.00696129  0.81275816     0.08400
C1568       C  0.21469870  0.02828962  0.71628442     0.04700
C1569       C  0.22195960  0.04583459  0.70728059    -0.20000
C1570       C  0.23589910  0.05880892  0.73290867    -0.12200
C1571       C  0.24268575  0.05410075  0.76861333     0.13400
C1572       C  0.23557326  0.03656029  0.77688841    -0.22700
C1573       C  0.19957873  0.01466430  0.68862411    -0.05700
H1574       H  0.21672836  0.04945300  0.68017353     0.15000
C1575       C  0.25664536  0.06698644  0.80067000    -0.15900
H1576       H  0.24054701  0.03286957  0.80453763     0.09300
H1577       H  0.16366829  0.96537652  0.82835425     0.07200
H1578       H  0.17556352  0.98518185  0.86036491     0.08400
H1579       H  0.17842708  0.96801860  0.87280554     0.07400
H1580       H  0.24567559  0.01292965  0.72935664     0.02300
H1581       H  0.23132771  0.00751728  0.68156272     0.02800
H1582       H  0.23633053  0.99237147  0.70019133     0.06300
H1583       H  0.19584211  0.02046457  0.66216912     0.05200
H1584       H  0.18828350  0.00675844  0.71196716    -0.00500
H1585       H  0.20292429  0.00612601  0.67061052     0.01000
H1586       H  0.25195575  0.06371034  0.83704241     0.04600
H1587       H  0.26050500  0.08046931  0.79572473     0.06600
H1588       H  0.26820410  0.06635318  0.79591107     0.07400
C1589       C  0.18837990  0.86439916  0.76229256    -0.22200
C1590       C  0.17920609  0.85139196  0.79520630     0.09800
C1591       C  0.16640791  0.85124549  0.82304627     0.10200
C1592       C  0.16321455  0.86427014  0.81774739    -0.17100
C1593       C  0.17282572  0.87770262  0.78608602    -0.27500
C1594       C  0.18527616  0.87751867  0.75706109     0.18500
C1595       C  0.18425911  0.83897836  0.80282246     0.12500
C1596       C  0.15652000  0.83766641  0.85935284    -0.11900
H1597       H  0.15363374  0.86436155  0.83985819     0.12800
C1598       C  0.19519200  0.89056934  0.71953373    -0.22700
H1599       H  0.19816145  0.86440654  0.74085663     0.08400
C1600       C  0.17651958  0.82295143  0.77922601     0.04700
C1601       C  0.18194901  0.81177408  0.78823584    -0.20000
C1602       C  0.19511368  0.81643390  0.81982769    -0.12200
C1603       C  0.20255393  0.83240636  0.84399823     0.13400
C1604       C  0.19705469  0.84345495  0.83506566    -0.22700
C1605       C  0.16270411  0.81778787  0.74434098    -0.05700
H1606       H  0.17617890  0.79954150  0.76978451     0.15000
C1607       C  0.21577107  0.83761880  0.88071952    -0.15900
H1608       H  0.20272317  0.85569029  0.85348912     0.09300
H1609       H  0.19319376  0.88370970  0.68593044     0.07200
H1610       H  0.20915894  0.89814774  0.72728778     0.08400
H1611       H  0.19106101  0.89961968  0.71517018     0.07400
H1612       H  0.16557832  0.83832355  0.88488947     0.02300
H1613       H  0.14939499  0.82463987  0.84294508     0.02800
H1614       H  0.14703751  0.83949270  0.87827830     0.06300
H1615       H  0.15802031  0.80486464  0.72889391     0.05200
H1616       H  0.16789930  0.82736190  0.71603877    -0.00500
H1617       H  0.15155486  0.81731148  0.76116130     0.01000
H1618       H  0.22774729  0.83950036  0.86520423     0.04600
H1619       H  0.21039539  0.82744287  0.90742439     0.06600
H1620       H  0.21930455  0.84994435  0.89814279     0.07400
C1621       C  0.03651824  0.81722970  0.29798271    -0.22200
C1622       C  0.03099056  0.82538179  0.26999624     0.09800
C1623       C  0.04320942  0.84150649  0.25036924     0.10200
C1624       C  0.06075491  0.84904469  0.25870491    -0.17100
C1625       C  0.06643329  0.84091071  0.28641057    -0.27500
C1626       C  0.05409440  0.82486729  0.30700169     0.18500
C1627       C  0.01236514  0.81673064  0.26087922     0.12500
C1628       C  0.03772506  0.85066854  0.22027878    -0.11900
H1629       H  0.07015405  0.86135190  0.24304434     0.12800
C1630       C  0.05870570  0.81575763  0.34015669    -0.22700
H1631       H  0.02700612  0.80490825  0.31338471     0.08400
C1632       C  0.00438295  0.80413394  0.22558583     0.04700
C1633       C  0.98684835  0.79669939  0.21690005    -0.20000
C1634       C  0.97720646  0.80181239  0.24216961    -0.12200
C1635       C  0.98513626  0.81415136  0.27847053     0.13400
C1636       C  0.00268841  0.82156284  0.28700571    -0.22700
C1637       C  0.01451573  0.79889683  0.19637140    -0.05700
H1638       H  0.98074737  0.78719524  0.18932122     0.15000
C1639       C  0.97548273  0.81938126  0.31001555    -0.15900
H1640       H  0.00887832  0.83114527  0.31439207     0.09300
H1641       H  0.05504921  0.80302980  0.32528924     0.07200
H1642       H  0.05146795  0.81360522  0.37324824     0.08400
H1643       H  0.07253523  0.82313477  0.34867742     0.07400
H1644       H  0.02919661  0.85352607  0.24043669     0.02300
H1645       H  0.03063787  0.84237053  0.19004594     0.02800
H1646       H  0.04895421  0.86307957  0.20719930     0.06300
H1647       H  0.00637551  0.78903797  0.16985794     0.05200
H1648       H  0.01984309  0.79336681  0.21861400    -0.00500
H1649       H  0.02529265  0.81036370  0.17828607     0.01000
H1650       H  0.97719166  0.81724025  0.34651227     0.04600
H1651       H  0.96143101  0.81188035  0.30408672     0.06600
H1652       H  0.98073656  0.83331416  0.30548321     0.07400
C1653       C  0.14668990  0.90884274  0.10882486    -0.22200
C1654       C  0.13518695  0.89764271  0.07506410     0.09800
C1655       C  0.12052850  0.88157622  0.08818263     0.10200
C1656       C  0.11781322  0.87696074  0.13487627    -0.17100
C1657       C  0.12960186  0.88784118  0.16878976    -0.27500
C1658       C  0.14431243  0.90405636  0.15551738     0.18500
C1659       C  0.14000422  0.90180508  0.02573009     0.12500
C1660       C  0.10801103  0.86911587  0.05270004    -0.11900
H1661       H  0.10655675  0.86455200  0.14486122     0.12800
C1662       C  0.15844552  0.91614197  0.18822711    -0.22700
H1663       H  0.15814771  0.92100455  0.09822743     0.08400
C1664       C  0.13548650  0.91152011  0.00030034     0.04700
C1665       C  0.14011308  0.91452233  0.95309515    -0.20000
C1666       C  0.14917322  0.90802506  0.93120821    -0.12200
C1667       C  0.15331554  0.89794981  0.95678846     0.13400
C1668       C  0.14891876  0.89525181  0.00383561    -0.22700
C1669       C  0.12586410  0.91868240  0.02306906    -0.05700
H1670       H  0.13690809  0.92217823  0.93341965     0.15000
C1671       C  0.16164210  0.88912768  0.93558339    -0.15900
H1672       H  0.15209190  0.88755558  0.02349807     0.09300
H1673       H  0.15916530  0.92850457  0.19112155     0.07200
H1674       H  0.17098144  0.91885770  0.17439025     0.08400
H1675       H  0.15681328  0.91091028  0.22324637     0.07400
H1676       H  0.11472319  0.86535626  0.02769484     0.02300
H1677       H  0.10254924  0.87529520  0.03379741     0.02800
H1678       H  0.09716762  0.85715147  0.06888123     0.06300
H1679       H  0.12335458  0.92601447  0.99832937     0.05200
H1680       H  0.13354873  0.92753611  0.05186558    -0.00500
H1681       H  0.11328029  0.90795424  0.03700294     0.01000
H1682       H  0.17449584  0.89458897  0.95094812     0.04600
H1683       H  0.16321180  0.89026708  0.89756110     0.06600
H1684       H  0.15346131  0.87508504  0.94303846     0.07400
C1685       C  0.13330427  0.88419468  0.51358656    -0.22200
C1686       C  0.12720531  0.89439513  0.52894275     0.09800
C1687       C  0.11953744  0.89949020  0.49738540     0.10200
C1688       C  0.11824287  0.89430721  0.45077784    -0.17100
C1689       C  0.12432767  0.88404585  0.43539953    -0.27500
C1690       C  0.13211138  0.87904382  0.46720339     0.18500
C1691       C  0.13024996  0.90045248  0.57765198     0.12500
C1692       C  0.11251709  0.91012458  0.51312805    -0.11900
H1693       H  0.11221445  0.89803410  0.42639711     0.12800
C1694       C  0.14003992  0.86899359  0.45346908    -0.22700
H1695       H  0.13947095  0.88058920  0.53789558     0.08400
C1696       C  0.12049999  0.88927133  0.61438682     0.04700
C1697       C  0.12605580  0.89449711  0.65997052    -0.20000
C1698       C  0.14127075  0.91052043  0.66925120    -0.12200
C1699       C  0.15001941  0.92236631  0.63276321     0.13400
C1700       C  0.14451769  0.91706364  0.58730263    -0.22700
C1701       C  0.10462811  0.87162525  0.60526755    -0.05700
H1702       H  0.11921689  0.88552802  0.68799619     0.15000
C1703       C  0.16520764  0.94062081  0.64040919    -0.15900
H1704       H  0.15177893  0.92573868  0.55900376     0.09300
H1705       H  0.13292856  0.85629849  0.47100182     0.07200
H1706       H  0.15369236  0.87630082  0.46438570     0.08400
H1707       H  0.14014583  0.86675638  0.41577573     0.07400
H1708       H  0.12305100  0.92272327  0.52730899     0.02300
H1709       H  0.10246394  0.90310545  0.54039770     0.02800
H1710       H  0.10662866  0.91271607  0.48424461     0.06300
H1711       H  0.09838130  0.86462437  0.63789242     0.05200
H1712       H  0.10808070  0.86374292  0.58415595    -0.00500
H1713       H  0.09515432  0.87292324  0.58634932     0.01000
H1714       H  0.17695590  0.94224968  0.62390184     0.04600
H1715       H  0.16768061  0.94425228  0.67748854     0.06600
H1716       H  0.16264731  0.94977974  0.62448086     0.07400
C1717       C  0.24425737  0.81742711  0.03296168    -0.22200
C1718       C  0.24776902  0.80647020  0.05534212     0.09800
C1719       C  0.24657374  0.79251483  0.03065811     0.10200
C1720       C  0.24146235  0.78960521  0.98419505    -0.17100
C1721       C  0.23730816  0.80022058  0.96236689    -0.27500
C1722       C  0.23925382  0.81461699  0.98669665     0.18500
C1723       C  0.25199898  0.80969537  0.10513628     0.12500
C1724       C  0.25039998  0.78058794  0.05361001    -0.11900
H1725       H  0.23993234  0.77855545  0.96554505     0.12800
C1726       C  0.23648447  0.82746408  0.96471865    -0.22700
H1727       H  0.24535912  0.82824251  0.05189147     0.08400
C1728       C  0.26823913  0.82350077  0.12007910     0.04700
C1729       C  0.27083643  0.82757457  0.16744295    -0.20000
C1730       C  0.25752764  0.81829515  0.20033275    -0.12200
C1731       C  0.24123080  0.80429414  0.18516040     0.13400
C1732       C  0.23885058  0.80003169  0.13783258    -0.22700
C1733       C  0.28274284  0.83403968  0.08594044    -0.05700
H1734       H  0.28327221  0.83833923  0.17881361     0.15000
C1735       C  0.22560946  0.79428868  0.21654606    -0.15900
H1736       H  0.22628598  0.78964667  0.12598488     0.09300
H1737       H  0.24815739  0.84069542  0.96910234     0.07200
H1738       H  0.22530828  0.82690933  0.98167676     0.08400
H1739       H  0.23425674  0.82516913  0.92712969     0.07400
H1740       H  0.24135374  0.77412063  0.08326531     0.02300
H1741       H  0.26382852  0.78810812  0.06629053     0.02800
H1742       H  0.24900499  0.77042478  0.02934025     0.06300
H1743       H  0.29470264  0.84417165  0.10345052     0.05200
H1744       H  0.27904975  0.84053145  0.06167187    -0.00500
H1745       H  0.28561210  0.82546675  0.06603518     0.01000
H1746       H  0.21489404  0.79495057  0.20306722     0.04600
H1747       H  0.22762339  0.79923427  0.25245221     0.06600
H1748       H  0.22149719  0.78054153  0.21708187     0.07400
C1749       C  0.25317423  0.80027093  0.64035726    -0.22200
C1750       C  0.24271287  0.80188267  0.60961353     0.09800
C1751       C  0.22663848  0.79856256  0.62527300     0.10200
C1752       C  0.22138417  0.79371201  0.67123014    -0.17100
C1753       C  0.23184594  0.79227881  0.70245644    -0.27500
C1754       C  0.24790912  0.79537458  0.68660621     0.18500
C1755       C  0.24865592  0.80723822  0.56115792     0.12500
C1756       C  0.21519639  0.80061634  0.59384304    -0.11900
H1757       H  0.20915722  0.79150081  0.68324059     0.12800
C1758       C  0.25953783  0.79306730  0.71647102    -0.22700
H1759       H  0.26545264  0.80269244  0.62804719     0.08400
C1760       C  0.26032173  0.82472963  0.54977384     0.04700
C1761       C  0.26338451  0.82952435  0.50308366    -0.20000
C1762       C  0.25496662  0.81728396  0.46723227    -0.12200
C1763       C  0.24359064  0.79959374  0.47891553     0.13400
C1764       C  0.24090656  0.79485626  0.52569081    -0.22700
C1765       C  0.26914400  0.83838259  0.58693758    -0.05700
H1766       H  0.27225623  0.84303245  0.49456744     0.15000
C1767       C  0.23309591  0.78533201  0.44425390    -0.15900
H1768       H  0.23186551  0.78142999  0.53478231     0.09300
H1769       H  0.27191545  0.80570066  0.72127995     0.07200
H1770       H  0.26224027  0.78393129  0.69915707     0.08400
H1771       H  0.25383003  0.78766253  0.75082878     0.07400
H1772       H  0.21122224  0.79143713  0.56421647     0.02300
H1773       H  0.22226410  0.81403834  0.58069571     0.02800
H1774       H  0.20331320  0.79800968  0.61208638     0.06300
H1775       H  0.27773449  0.85147503  0.57212059     0.05200
H1776       H  0.27711462  0.83558865  0.60811388    -0.00500
H1777       H  0.25935299  0.83852175  0.60956892     0.01000
H1778       H  0.23732243  0.77619072  0.44350014     0.04600
H1779       H  0.23380230  0.78981491  0.40882318     0.06600
H1780       H  0.21926814  0.77818599  0.45485421     0.07400
C1781       C  0.20386382  0.84442699  0.28042022    -0.22200
C1782       C  0.20155401  0.85400607  0.31453655     0.09800
C1783       C  0.21314624  0.86145815  0.35153739     0.10200
C1784       C  0.22659376  0.85875246  0.35422053    -0.17100
C1785       C  0.22857172  0.84868777  0.32084455    -0.27500
C1786       C  0.21733645  0.84180055  0.28278613     0.18500
C1787       C  0.18677823  0.85590725  0.31103915     0.12500
C1788       C  0.21126373  0.87220753  0.38810437    -0.11900
H1789       H  0.23530582  0.86410988  0.38310532     0.12800
C1790       C  0.21943829  0.83208635  0.24334021    -0.22700
H1791       H  0.19509822  0.83899537  0.25163919     0.08400
C1792       C  0.18750303  0.86831855  0.28208152     0.04700
C1793       C  0.17321165  0.86971589  0.28038093    -0.20000
C1794       C  0.15821275  0.85901868  0.30705109    -0.12200
C1795       C  0.15768243  0.84680654  0.33690032     0.13400
C1796       C  0.17188394  0.84522560  0.33776548    -0.22700
C1797       C  0.20343643  0.88021740  0.25353243    -0.05700
H1798       H  0.17374100  0.87923012  0.25800133     0.15000
C1799       C  0.14297034  0.83591502  0.37025992    -0.15900
H1800       H  0.17153079  0.83587520  0.36045330     0.09300
H1801       H  0.22079326  0.83862484  0.21031147     0.07200
H1802       H  0.20786409  0.81868287  0.24167628     0.08400
H1803       H  0.23097815  0.83149104  0.24611524     0.07400
H1804       H  0.19858010  0.86428407  0.40614424     0.02300
H1805       H  0.21214695  0.88341345  0.37181986     0.02800
H1806       H  0.22149707  0.87721700  0.41435860     0.06300
H1807       H  0.20194612  0.88934582  0.23326734     0.05200
H1808       H  0.20610735  0.87253745  0.22892714    -0.00500
H1809       H  0.21463429  0.88789848  0.27653924     0.01000
H1810       H  0.13694130  0.82203003  0.36145475     0.04600
H1811       H  0.13286902  0.83878001  0.37073600     0.06600
H1812       H  0.14800444  0.83829994  0.40591738     0.07400
C1813       C  0.91209542  0.55804995  0.54173173    -0.22200
C1814       C  0.89913444  0.55248460  0.57590324     0.09800
C1815       C  0.89447841  0.53794533  0.60257823     0.10200
C1816       C  0.90257837  0.52902783  0.59373407    -0.17100
C1817       C  0.91536207  0.53432221  0.55900675    -0.27500
C1818       C  0.92021501  0.54911242  0.53260213     0.18500
C1819       C  0.88960868  0.56115058  0.58089163     0.12500
C1820       C  0.88094580  0.53185556  0.64043444    -0.11900
H1821       H  0.89889257  0.51779828  0.61417311     0.12800
C1822       C  0.93308633  0.55537390  0.49296573    -0.22700
H1823       H  0.91549447  0.56912512  0.52096137     0.08400
C1824       C  0.89591841  0.57643588  0.60727348     0.04700
C1825       C  0.88596976  0.58365451  0.61201739    -0.20000
C1826       C  0.86978169  0.57584793  0.59125265    -0.12200
C1827       C  0.86380708  0.56082952  0.56333520     0.13400
C1828       C  0.87370104  0.55359753  0.55916566    -0.22700
C1829       C  0.91292211  0.58484041  0.63128979    -0.05700
H1830       H  0.89062837  0.59516713  0.63319292     0.15000
C1831       C  0.84747850  0.55236056  0.53585203    -0.15900
H1832       H  0.86902463  0.54198694  0.53835879     0.09300
H1833       H  0.94423401  0.56862370  0.50081972     0.07200
H1834       H  0.92691450  0.55576438  0.46109284     0.08400
H1835       H  0.93794684  0.54701357  0.48522247     0.07400
H1836       H  0.86842679  0.52813414  0.62567063     0.02300
H1837       H  0.88492113  0.54239100  0.66632262     0.02800
H1838       H  0.87903810  0.52046923  0.65854391     0.06300
H1839       H  0.91590217  0.59660751  0.65093773     0.05200
H1840       H  0.92343439  0.58863855  0.60538086    -0.00500
H1841       H  0.91256319  0.57563055  0.65591951     0.01000
H1842       H  0.85043766  0.55099357  0.49915797     0.04600
H1843       H  0.84153053  0.55992605  0.53560848     0.06600
H1844       H  0.83799598  0.53930897  0.54976447     0.07400
C1845       C  0.16288994  0.50757436  0.44955677    -0.22200
C1846       C  0.15220507  0.48990604  0.43946450     0.09800
C1847       C  0.13430084  0.48223897  0.43563027     0.10200
C1848       C  0.12755725  0.49261645  0.44046074    -0.17100
C1849       C  0.13832444  0.51053987  0.44889458    -0.27500
C1850       C  0.15628695  0.51802938  0.45422552     0.18500
C1851       C  0.16033451  0.47997432  0.43166663     0.12500
C1852       C  0.12240682  0.46320110  0.42549929    -0.11900
H1853       H  0.11382323  0.48671255  0.43675413     0.12800
C1854       C  0.16874091  0.53696788  0.46499878    -0.22700
H1855       H  0.17660883  0.51326803  0.45301336     0.08400
C1856       C  0.16985906  0.48193576  0.39069889     0.04700
C1857       C  0.17860661  0.47350124  0.38622934    -0.20000
C1858       C  0.17789078  0.46297296  0.42146589    -0.12200
C1859       C  0.16818662  0.46083541  0.46234918     0.13400
C1860       C  0.15948339  0.46934899  0.46682180    -0.22700
C1861       C  0.17072071  0.49286094  0.35159289    -0.05700
H1862       H  0.18608957  0.47514221  0.35501917     0.15000
C1863       C  0.16739008  0.45043916  0.50277940    -0.15900
H1864       H  0.15236039  0.46806818  0.49849749     0.09300
H1865       H  0.16928771  0.54490033  0.43601616     0.07200
H1866       H  0.18204862  0.54022239  0.46982363     0.08400
H1867       H  0.16468232  0.54049570  0.49751038     0.07400
H1868       H  0.12305599  0.45564676  0.45363456     0.02300
H1869       H  0.12630081  0.45994126  0.39224712     0.02800
H1870       H  0.10880107  0.45929923  0.42283062     0.06300
H1871       H  0.17835183  0.49263333  0.32163609     0.05200
H1872       H  0.17688855  0.50649013  0.36328332    -0.00500
H1873       H  0.15749216  0.48790397  0.33970744     0.01000
H1874       H  0.17236186  0.45889988  0.53398435     0.04600
H1875       H  0.17514544  0.44474949  0.49725978     0.06600
H1876       H  0.15379792  0.43977155  0.50955622     0.07400
C1877       C  0.04728961  0.53886559  0.46539401    -0.22200
C1878       C  0.03487981  0.52418026  0.48986108     0.09800
C1879       C  0.03878166  0.51221449  0.50380259     0.10200
C1880       C  0.05519208  0.51538920  0.49365363    -0.17100
C1881       C  0.06787941  0.53033816  0.47008322    -0.27500
C1882       C  0.06371974  0.54213134  0.45520467     0.18500
C1883       C  0.01766403  0.52133261  0.49894133     0.12500
C1884       C  0.02568342  0.49622648  0.52993009    -0.11900
H1885       H  0.05822341  0.50629862  0.50506235     0.12800
C1886       C  0.07626521  0.55800044  0.42767777    -0.22700
H1887       H  0.04404751  0.54782369  0.45418984     0.08400
C1888       C  0.01466471  0.52966102  0.53592238     0.04700
C1889       C  0.99814010  0.52664377  0.54253667    -0.20000
C1890       C  0.98456236  0.51544695  0.51306617    -0.12200
C1891       C  0.98777927  0.50753367  0.47512742     0.13400
C1892       C  0.00423699  0.51045718  0.46894445    -0.22700
C1893       C  0.02882684  0.54148481  0.56874924    -0.05700
H1894       H  0.99569260  0.53270719  0.57150594     0.15000
C1895       C  0.97446304  0.49647044  0.43935952    -0.15900
H1896       H  0.00669991  0.50437788  0.44002514     0.09300
H1897       H  0.08753873  0.56714915  0.44901751     0.07200
H1898       H  0.07034482  0.56498374  0.41649914     0.08400
H1899       H  0.08058671  0.55423564  0.39610707     0.07400
H1900       H  0.01406015  0.48813898  0.50862367     0.02300
H1901       H  0.02193429  0.49995553  0.56263886     0.02800
H1902       H  0.03083759  0.48829122  0.53869134     0.06300
H1903       H  0.02426493  0.54673518  0.59619839     0.05200
H1904       H  0.03963806  0.55253367  0.54952024    -0.00500
H1905       H  0.03360710  0.53428072  0.58564365     0.01000
H1906       H  0.97966326  0.50185050  0.40446245     0.04600
H1907       H  0.96229145  0.49591761  0.44406982     0.06600
H1908       H  0.97150267  0.48311646  0.44029882     0.07400
C1909       C  0.16201359  0.67483215  0.94973158    -0.22200
C1910       C  0.15668950  0.67870289  0.90963417     0.09800
C1911       C  0.14331671  0.66516304  0.88329999     0.10200
C1912       C  0.13576858  0.64801133  0.89727889    -0.17100
C1913       C  0.14151194  0.64403228  0.93642133    -0.27500
C1914       C  0.15452775  0.65767250  0.96373793     0.18500
C1915       C  0.16576763  0.69696042  0.89481160     0.12500
C1916       C  0.13717930  0.66880070  0.84012017    -0.11900
H1917       H  0.12576377  0.63758831  0.87644462     0.12800
C1918       C  0.16054091  0.65475846  0.00834583    -0.22700
H1919       H  0.17217142  0.68529932  0.97013335     0.08400
C1920       C  0.16217434  0.70865034  0.91535736     0.04700
C1921       C  0.17125872  0.72581888  0.90004343    -0.20000
C1922       C  0.18385193  0.73158771  0.86456748    -0.12200
C1923       C  0.18702438  0.71961505  0.84304953     0.13400
C1924       C  0.17816031  0.70257996  0.85913980    -0.22700
C1925       C  0.14874753  0.70299036  0.95332469    -0.05700
H1926       H  0.16876413  0.73488844  0.91660029     0.15000
C1927       C  0.19904213  0.72391759  0.80197178    -0.15900
H1928       H  0.18070020  0.69346168  0.84308594     0.09300
H1929       H  0.15907665  0.66221753  0.03662983     0.07200
H1930       H  0.17436017  0.65932819  0.00481461     0.08400
H1931       H  0.15308321  0.64106719  0.01900905     0.07400
H1932       H  0.14791062  0.67523845  0.81433627     0.02300
H1933       H  0.13252896  0.67735172  0.84864754     0.02800
H1934       H  0.12644632  0.65674991  0.82403456     0.06300
H1935       H  0.14742604  0.71370577  0.96535258     0.05200
H1936       H  0.15236706  0.69846660  0.98336120    -0.00500
H1937       H  0.13604429  0.69228524  0.94052629     0.01000
H1938       H  0.21030463  0.72359405  0.81221493     0.04600
H1939       H  0.20364676  0.73660099  0.78664439     0.06600
H1940       H  0.19215194  0.71415068  0.77412615     0.07400
C1941       C  0.14412602  0.57454077  0.14502109    -0.22200
C1942       C  0.13181628  0.57289645  0.17759331     0.09800
C1943       C  0.11944819  0.57625354  0.16425397     0.10200
C1944       C  0.11961993  0.58113963  0.11874710    -0.17100
C1945       C  0.13187266  0.58285678  0.08573426    -0.27500
C1946       C  0.14448188  0.57968849  0.09929438     0.18500
C1947       C  0.13186585  0.56766199  0.22569494     0.12500
C1948       C  0.10585511  0.57443565  0.19792115    -0.11900
H1949       H  0.10984345  0.58338556  0.10870768     0.12800
C1950       C  0.15890934  0.58228283  0.06778018    -0.22700
H1951       H  0.15370078  0.57207636  0.15558964     0.08400
C1952       C  0.12369969  0.55013511  0.23744114     0.04700
C1953       C  0.12206714  0.54560829  0.28413872    -0.20000
C1954       C  0.12828446  0.55816115  0.31974032    -0.12200
C1955       C  0.13687012  0.57583810  0.30765770     0.13400
C1956       C  0.13859987  0.58031684  0.26075731    -0.22700
C1957       C  0.11624166  0.53616612  0.20075907    -0.05700
H1958       H  0.11557535  0.53207450  0.29286003     0.15000
C1959       C  0.14366231  0.59004481  0.34364179    -0.15900
H1960       H  0.14472006  0.59374727  0.25133702     0.09300
H1961       H  0.15767966  0.56975156  0.06197583     0.07200
H1962       H  0.17146416  0.59147850  0.08432855     0.08400
H1963       H  0.15928219  0.58774948  0.03390587     0.07400
H1964       H  0.11205551  0.58363185  0.22727758     0.02300
H1965       H  0.09809117  0.56104067  0.21126655     0.02800
H1966       H  0.09694490  0.57719766  0.18151342     0.06300
H1967       H  0.11007426  0.52309682  0.21586605     0.05200
H1968       H  0.12662951  0.53814649  0.17643050    -0.00500
H1969       H  0.10632045  0.53657908  0.18134714     0.01000
H1970       H  0.15379206  0.59032743  0.36392904     0.04600
H1971       H  0.13297146  0.58790050  0.36701106     0.06600
H1972       H  0.14950863  0.60295647  0.32779204     0.07400
C1973       C  0.12001711  0.56475057  0.75147178    -0.22200
C1974       C  0.13578260  0.57586568  0.72873508     0.09800
C1975       C  0.14968478  0.58940550  0.75373483     0.10200
C1976       C  0.14731585  0.59175799  0.80102392    -0.17100
C1977       C  0.13129786  0.58089537  0.82343440    -0.27500
C1978       C  0.11764097  0.56690354  0.79852557     0.18500
C1979       C  0.13704764  0.57281546  0.67862583     0.12500
C1980       C  0.16684141  0.60142022  0.73027228    -0.11900
H1981       H  0.15776979  0.60246766  0.82006441     0.12800
C1982       C  0.10048888  0.55368146  0.82050740    -0.22700
H1983       H  0.10945887  0.55418614  0.73227155     0.08400
C1984       C  0.13947749  0.55973586  0.66300608     0.04700
C1985       C  0.13738242  0.55502794  0.61599648    -0.20000
C1986       C  0.13278202  0.56299861  0.58421387    -0.12200
C1987       C  0.13093320  0.57656739  0.59966537     0.13400
C1988       C  0.13328712  0.58140116  0.64667689    -0.22700
C1989       C  0.14375255  0.55039522  0.69625962    -0.05700
H1990       H  0.13874279  0.54461654  0.60421078     0.15000
C1991       C  0.12524164  0.58539159  0.56886654    -0.15900
H1992       H  0.13118446  0.59127473  0.65900059     0.09300
H1993       H  0.09774048  0.54053704  0.81380621     0.07200
H1994       H  0.09013419  0.55450909  0.80515109     0.08400
H1995       H  0.10007584  0.55517456  0.85850437     0.07400
H1996       H  0.16524775  0.60819839  0.70170415     0.02300
H1997       H  0.17206302  0.59392091  0.71591179     0.02800
H1998       H  0.17637041  0.61130723  0.75468643     0.06300
H1999       H  0.14541477  0.54064276  0.67830525     0.05200
H2000       H  0.13321777  0.54360880  0.72245424    -0.00500
H2001       H  0.15594836  0.55981651  0.71401247     0.01000
H2002       H  0.11314877  0.58363244  0.58318923     0.04600
H2003       H  0.12264030  0.58032615  0.53299897     0.06600
H2004       H  0.13536068  0.59943171  0.56772002     0.07400
C2005       C  0.90643955  0.37454047  0.10822168    -0.22200
C2006       C  0.89022477  0.36236441  0.09014417     0.09800
C2007       C  0.88214518  0.36791932  0.06155268     0.10200
C2008       C  0.89052230  0.38555540  0.05138737    -0.17100
C2009       C  0.90689030  0.39782111  0.06885702    -0.27500
C2010       C  0.91481451  0.39223566  0.09856748     0.18500
C2011       C  0.88190844  0.34378207  0.10090778     0.12500
C2012       C  0.86478774  0.35514918  0.04115055    -0.11900
H2013       H  0.88435442  0.38976240  0.02903155     0.12800
C2014       C  0.93161339  0.40440197  0.12261340    -0.22700
H2015       H  0.91249457  0.37021619  0.13063623     0.08400
C2016       C  0.88609137  0.33333313  0.07547642     0.04700
C2017       C  0.87677673  0.31549357  0.08378766    -0.20000
C2018       C  0.86339213  0.30783590  0.11710954    -0.12200
C2019       C  0.85992153  0.31853973  0.14457759     0.13400
C2020       C  0.86907035  0.33633840  0.13557161    -0.22700
C2021       C  0.90009004  0.34096756  0.03873915    -0.05700
H2022       H  0.87958192  0.30739100  0.06300280     0.15000
C2023       C  0.84714645  0.31189730  0.18450664    -0.15900
H2024       H  0.86614680  0.34449105  0.15568611     0.09300
H2025       H  0.94148214  0.40192209  0.10995081     0.07200
H2026       H  0.92969870  0.40208592  0.16043324     0.08400
H2027       H  0.93666187  0.41821610  0.11795547     0.07400
H2028       H  0.85504840  0.34841841  0.06926912     0.02300
H2029       H  0.86553226  0.34546955  0.01963343     0.02800
H2030       H  0.86037785  0.36157434  0.01897099     0.06300
H2031       H  0.90153710  0.33096759  0.02149371     0.05200
H2032       H  0.91259387  0.35077017  0.05454205    -0.00500
H2033       H  0.89699691  0.34721235  0.01197053     0.01000
H2034       H  0.85364722  0.31955595  0.21613456     0.04600
H2035       H  0.84182460  0.29823163  0.19279255     0.06600
H2036       H  0.83636298  0.31336535  0.17678025     0.07400
C2037       C  0.90383634  0.46004665  0.23909720    -0.22200
C2038       C  0.91859221  0.46903269  0.26635402     0.09800
C2039       C  0.93487210  0.47481276  0.24608367     0.10200
C2040       C  0.93597045  0.47110157  0.19938087    -0.17100
C2041       C  0.92123825  0.46180606  0.17195124    -0.27500
C2042       C  0.90486672  0.45619516  0.19219361     0.18500
C2043       C  0.91695386  0.47221497  0.31623128     0.12500
C2044       C  0.95116844  0.48509502  0.27356903    -0.11900
H2045       H  0.94851643  0.47548450  0.18412559     0.12800
C2046       C  0.88810655  0.44543104  0.16691811    -0.22700
H2047       H  0.89135350  0.45559776  0.25489618     0.08400
C2048       C  0.91473227  0.48549074  0.33115076     0.04700
C2049       C  0.91605534  0.48984088  0.37837642    -0.20000
C2050       C  0.91981078  0.48142647  0.41112640    -0.12200
C2051       C  0.92148944  0.46767128  0.39612565     0.13400
C2052       C  0.91961474  0.46304126  0.34902228    -0.22700
C2053       C  0.91176606  0.49559588  0.29702831    -0.05700
H2054       H  0.91481349  0.50037666  0.38960982     0.15000
C2055       C  0.92658694  0.45836909  0.42712494    -0.15900
H2056       H  0.92137613  0.45288003  0.33726262     0.09300
H2057       H  0.88186284  0.45275140  0.16482248     0.07200
H2058       H  0.87935860  0.43334143  0.18629271     0.08400
H2059       H  0.88950874  0.44152390  0.13160820     0.07400
H2060       H  0.95088102  0.47723792  0.30235979     0.02300
H2061       H  0.95239212  0.49695431  0.28789141     0.02800
H2062       H  0.96283024  0.48908664  0.25192579     0.06300
H2063       H  0.91063328  0.50577479  0.31439842     0.05200
H2064       H  0.89964845  0.48678609  0.27821743    -0.00500
H2065       H  0.92271770  0.50195258  0.27183643     0.01000
H2066       H  0.91614459  0.44442546  0.42798093     0.04600
H2067       H  0.92932389  0.46332799  0.46298658     0.06600
H2068       H  0.93851336  0.45969688  0.41300743     0.07400
C2069       C  0.93691867  0.48268483  0.74965084    -0.22200
C2070       C  0.92017446  0.46997663  0.76425396     0.09800
C2071       C  0.90644790  0.46372719  0.73328280     0.10200
C2072       C  0.90980908  0.47050693  0.68830122    -0.17100
C2073       C  0.92660127  0.48351189  0.67369541    -0.27500
C2074       C  0.94036762  0.48952968  0.70494186     0.18500
C2075       C  0.91762633  0.46359947  0.81238237     0.12500
C2076       C  0.88830686  0.44996259  0.74782439    -0.11900
H2077       H  0.89922807  0.46578021  0.66467327     0.12800
C2078       C  0.95883758  0.50285430  0.69147674    -0.22700
H2079       H  0.94739086  0.48728147  0.77362679     0.08400
C2080       C  0.92008476  0.45037240  0.82358800     0.04700
C2081       C  0.91988702  0.44634554  0.87020698    -0.20000
C2082       C  0.91771578  0.45550291  0.90634965    -0.12200
C2083       C  0.91485246  0.46856113  0.89480946     0.13400
C2084       C  0.91469881  0.47229540  0.84796149    -0.22700
C2085       C  0.92351105  0.44090408  0.78634661    -0.05700
H2086       H  0.92210386  0.43636616  0.87843133     0.15000
C2087       C  0.91283067  0.47926711  0.93125175    -0.15900
H2088       H  0.91303553  0.48258987  0.83898256     0.09300
H2089       H  0.96260803  0.49839256  0.66021207     0.07200
H2090       H  0.96788038  0.50513424  0.71934369     0.08400
H2091       H  0.96041890  0.51539980  0.68468116     0.07400
H2092       H  0.88422653  0.45464760  0.77791941     0.02300
H2093       H  0.88768703  0.43811753  0.75768545     0.02800
H2094       H  0.87905879  0.44649886  0.71953609     0.06300
H2095       H  0.92522574  0.43096681  0.80096874     0.05200
H2096       H  0.93544636  0.45017996  0.76666766    -0.00500
H2097       H  0.91252310  0.43434000  0.76231316     0.01000
H2098       H  0.92459110  0.48637428  0.95255109     0.04600
H2099       H  0.90138934  0.47078638  0.95357463     0.06600
H2100       H  0.91095695  0.48897992  0.91578806     0.07400
C2101       C  0.00470522  0.51658553  0.99332325    -0.22200
C2102       C  0.01711489  0.51327551  0.00538079     0.09800
C2103       C  0.01187063  0.49735847  0.02560230     0.10200
C2104       C  0.99418954  0.48492128  0.03253818    -0.17100
C2105       C  0.98162878  0.48814951  0.02044594    -0.27500
C2106       C  0.98703827  0.50430010  0.00063974     0.18500
C2107       C  0.03552592  0.52681935  0.99640506     0.12500
C2108       C  0.02493263  0.49356556  0.04001955    -0.11900
H2109       H  0.99017510  0.47266372  0.04788760     0.12800
C2110       C  0.97439596  0.50865406  0.98593634    -0.22700
H2111       H  0.00892556  0.52889062  0.97788811     0.08400
C2112       C  0.04370897  0.52763007  0.95380489     0.04700
C2113       C  0.06100508  0.54108225  0.94629920    -0.20000
C2114       C  0.07014345  0.55397600  0.97996772    -0.12200
C2115       C  0.06188908  0.55314208  0.02272964     0.13400
C2116       C  0.04465651  0.53956583  0.03025467    -0.22700
C2117       C  0.03409264  0.51444498  0.91611782    -0.05700
H2118       H  0.06735470  0.54172369  0.91364568     0.15000
C2119       C  0.07087202  0.56588394  0.06185948    -0.15900
H2120       H  0.03827324  0.53889099  0.06287588     0.09300
H2121       H  0.98097470  0.52149820  0.96925226     0.07200
H2122       H  0.96714734  0.50907296  0.01654597     0.08400
H2123       H  0.96530971  0.49886237  0.96059181     0.07400
H2124       H  0.03358476  0.50326877  0.06616165     0.02300
H2125       H  0.03276030  0.49412938  0.00955997     0.02800
H2126       H  0.01866822  0.48053420  0.05543684     0.06300
H2127       H  0.04234950  0.51704171  0.88482661     0.05200
H2128       H  0.02278424  0.51471619  0.90604106    -0.00500
H2129       H  0.02956948  0.50134049  0.92857135     0.01000
H2130       H  0.06428384  0.57271412  0.06961300     0.04600
H2131       H  0.08465077  0.57566393  0.05457938     0.06600
H2132       H  0.07024022  0.55884965  0.09319586     0.07400
C2133       C  0.37131312  0.47899944  0.93170494    -0.22200
C2134       C  0.36191621  0.48627282  0.94435252     0.09800
C2135       C  0.37009922  0.50230728  0.96780989     0.10200
C2136       C  0.38764050  0.51088161  0.97769777    -0.17100
C2137       C  0.39729724  0.50384126  0.96474644    -0.27500
C2138       C  0.38896205  0.48758789  0.94153745     0.18500
C2139       C  0.34343837  0.47702059  0.93318735     0.12500
C2140       C  0.36031234  0.51043405  0.98209514    -0.11900
H2141       H  0.39386427  0.52326281  0.99553506     0.12800
C2142       C  0.39854935  0.47940851  0.92585377    -0.22700
H2143       H  0.36481913  0.46663554  0.91371531     0.08400
C2144       C  0.33796135  0.48021577  0.89189950     0.04700
C2145       C  0.32032473  0.47304172  0.88578035    -0.20000
C2146       C  0.30812602  0.46262394  0.91982448    -0.12200
C2147       C  0.31362343  0.45916707  0.96086183     0.13400
C2148       C  0.33124870  0.46632433  0.96676460    -0.22700
C2149       C  0.35075910  0.49136281  0.85473527    -0.05700
H2150       H  0.31602195  0.47559371  0.85436312     0.15000
C2151       C  0.30151685  0.44888360  0.00029186    -0.15900
H2152       H  0.33560346  0.46414815  0.99869166     0.09300
H2153       H  0.40932082  0.48821621  0.90203042     0.07200
H2154       H  0.39005633  0.46699588  0.90713630     0.08400
H2155       H  0.40366809  0.47664330  0.95623761     0.07400
H2156       H  0.34951626  0.50173236  0.00597764     0.02300
H2157       H  0.35504174  0.51269885  0.95112840     0.02800
H2158       H  0.36867663  0.52303662  0.00009062     0.06300
H2159       H  0.34430398  0.49252561  0.82462625     0.05200
H2160       H  0.35800345  0.48560667  0.84241463    -0.00500
H2161       H  0.35997255  0.50454256  0.86865651     0.01000
H2162       H  0.30189971  0.43728397  0.00604898     0.04600
H2163       H  0.28797858  0.44459576  0.99455171     0.06600
H2164       H  0.30569962  0.45696280  0.03226820     0.07400
C2165       C  0.70331231  0.54177463  0.10891365    -0.22200
C2166       C  0.69858496  0.55024198  0.07950706     0.09800
C2167       C  0.71134671  0.56637456  0.06092080     0.10200
C2168       C  0.72861268  0.57383222  0.07278179    -0.17100
C2169       C  0.73345861  0.56539630  0.10218101    -0.27500
C2170       C  0.72057474  0.54912912  0.12075986     0.18500
C2171       C  0.68015103  0.54195766  0.06873031     0.12500
C2172       C  0.70676846  0.57548504  0.02773141    -0.11900
H2173       H  0.73845956  0.58617638  0.05814093     0.12800
C2174       C  0.72422545  0.53935256  0.15435782    -0.22700
H2175       H  0.69338044  0.52938327  0.12319880     0.08400
C2176       C  0.67195394  0.52831972  0.03622868     0.04700
C2177       C  0.65434798  0.52053195  0.02804265    -0.20000
C2178       C  0.64478464  0.52623093  0.05111441    -0.12200
C2179       C  0.65311518  0.54009289  0.08340419     0.13400
C2180       C  0.67072155  0.54774522  0.09184347    -0.22700
C2181       C  0.68184343  0.52212070  0.00987624    -0.05700
H2182       H  0.64802187  0.50994962  0.00329900     0.15000
C2183       C  0.64349564  0.54649040  0.11033235    -0.15900
H2184       H  0.67718039  0.55821740  0.11686847     0.09300
H2185       H  0.72116288  0.52699702  0.13813959     0.07200
H2186       H  0.71594801  0.53639478  0.18578141     0.08400
H2187       H  0.73768361  0.54659528  0.16624076     0.07400
H2188       H  0.69784923  0.57849057  0.04489873     0.02300
H2189       H  0.70041705  0.56706600  0.99706476     0.02800
H2190       H  0.71836230  0.58780296  0.01554190     0.06300
H2191       H  0.67354875  0.51157236  0.98504873     0.05200
H2192       H  0.68710679  0.51713670  0.03426134    -0.00500
H2193       H  0.69264415  0.53298367  0.99008617     0.01000
H2194       H  0.65192980  0.55687704  0.13538464     0.04600
H2195       H  0.63260484  0.53569393  0.13008389     0.06600
H2196       H  0.63851844  0.55188892  0.08638133     0.07400
C2197       C  0.54754766  0.53119295  0.99429990    -0.22200
C2198       C  0.53096697  0.51970988  0.01258268     0.09800
C2199       C  0.52742433  0.50492042  0.03617189     0.10200
C2200       C  0.54051244  0.50180819  0.04041525    -0.17100
C2201       C  0.55717741  0.51319122  0.02193715    -0.27500
C2202       C  0.56075138  0.52819180  0.99877862     0.18500
C2203       C  0.51733132  0.52316499  0.00605169     0.12500
C2204       C  0.50985951  0.49250021  0.05728308    -0.11900
H2205       H  0.53766124  0.49035505  0.05835395     0.12800
C2206       C  0.57821374  0.54088465  0.97761129    -0.22700
H2207       H  0.55009277  0.54247967  0.97606082     0.08400
C2208       C  0.51673071  0.53585013  0.03242768     0.04700
C2209       C  0.50286983  0.53775834  0.02704713    -0.20000
C2210       C  0.48969909  0.52739247  0.99559710    -0.12200
C2211       C  0.49086906  0.51535658  0.96729121     0.13400
C2212       C  0.50453768  0.51322596  0.97349898    -0.22700
C2213       C  0.53053043  0.54714163  0.06674312    -0.05700
H2214       H  0.50215711  0.54721326  0.04809062     0.15000
C2215       C  0.47854338  0.50511068  0.92883257    -0.15900
H2216       H  0.50532461  0.50381466  0.95245148     0.09300
H2217       H  0.58805996  0.54681893  0.00497926     0.07200
H2218       H  0.57844989  0.55152182  0.95986744     0.08400
H2219       H  0.58166309  0.53419757  0.95159336     0.07400
H2220       H  0.50001238  0.48667131  0.02992390     0.02300
H2221       H  0.50654404  0.49946894  0.08269968     0.02800
H2222       H  0.50939697  0.48182714  0.07551031     0.06300
H2223       H  0.52788063  0.55613523  0.08520031     0.05200
H2224       H  0.54318911  0.55501018  0.04856076    -0.00500
H2225       H  0.53126601  0.53897847  0.09282950     0.01000
H2226       H  0.48594431  0.50759415  0.89588440     0.04600
H2227       H  0.46906454  0.50855899  0.92301553     0.06600
H2228       H  0.47148704  0.49110451  0.93646800     0.07400
C2229       C  0.49288690  0.36681350  0.59211535    -0.22200
C2230       C  0.49798191  0.35718789  0.56694962     0.09800
C2231       C  0.51182945  0.36551560  0.53481491     0.10200
C2232       C  0.52033265  0.38342053  0.52873942    -0.17100
C2233       C  0.51522269  0.39312388  0.55386069    -0.27500
C2234       C  0.50154371  0.38474290  0.58679628     0.18500
C2235       C  0.48876145  0.33843243  0.57567351     0.12500
C2236       C  0.51740846  0.35547671  0.50643066    -0.11900
H2237       H  0.53085390  0.38984101  0.50369537     0.12800
C2238       C  0.49625820  0.39421894  0.61884366    -0.22700
H2239       H  0.48237974  0.36033264  0.61719225     0.08400
C2240       C  0.49497413  0.33182239  0.60727364     0.04700
C2241       C  0.48577945  0.31393078  0.61437046    -0.20000
C2242       C  0.47022192  0.30252653  0.59172456    -0.12200
C2243       C  0.46394884  0.30926476  0.56013235     0.13400
C2244       C  0.47328648  0.32716820  0.55291868    -0.22700
C2245       C  0.51098765  0.34369620  0.63459962    -0.05700
H2246       H  0.49054556  0.30884934  0.63872485     0.15000
C2247       C  0.44796591  0.29820137  0.53185688    -0.15900
H2248       H  0.46857376  0.33239194  0.52882289     0.09300
H2249       H  0.49647109  0.39071367  0.65514610     0.07200
H2250       H  0.48295809  0.39037096  0.61087511     0.08400
H2251       H  0.50494229  0.40844547  0.61711864     0.07400
H2252       H  0.50648755  0.34549826  0.48533297     0.02300
H2253       H  0.52157134  0.34903759  0.52932222     0.02800
H2254       H  0.52834960  0.36398186  0.48264764     0.06300
H2255       H  0.51392935  0.33640719  0.65826050     0.05200
H2256       H  0.50914833  0.35274800  0.65579381    -0.00500
H2257       H  0.52225613  0.35126146  0.61101033     0.01000
H2258       H  0.43813730  0.30102563  0.54229560     0.04600
H2259       H  0.44220695  0.28417937  0.53484861     0.06600
H2260       H  0.45126121  0.30130176  0.49467299     0.07400
C2261       C  0.58020249  0.46490159  0.33285051    -0.22200
C2262       C  0.56730608  0.45828535  0.29970015     0.09800
C2263       C  0.54994560  0.44682256  0.31308827     0.10200
C2264       C  0.54573655  0.44309232  0.36006782    -0.17100
C2265       C  0.55850986  0.45056406  0.39412158    -0.27500
C2266       C  0.57608061  0.46115902  0.37996344     0.18500
C2267       C  0.57209878  0.46496000  0.25207339     0.12500
C2268       C  0.53585992  0.43892908  0.27786431    -0.11900
H2269       H  0.53228151  0.43472929  0.37024171     0.12800
C2270       C  0.59059707  0.46883508  0.41385166    -0.22700
H2271       H  0.59353167  0.47358174  0.32187792     0.08400
C2272       C  0.57360604  0.48043100  0.24053710     0.04700
C2273       C  0.57793801  0.48634310  0.19506402    -0.20000
C2274       C  0.58103913  0.47731176  0.16066925    -0.12200
C2275       C  0.58022360  0.46210205  0.17292440     0.13400
C2276       C  0.57536037  0.45594253  0.21836049    -0.22700
C2277       C  0.57051848  0.49064806  0.27622009    -0.05700
H2278       H  0.57871909  0.49807501  0.18625845     0.15000
C2279       C  0.58517143  0.45243774  0.14055404    -0.15900
H2280       H  0.57450359  0.44423242  0.22789719     0.09300
H2281       H  0.58987215  0.47804616  0.43750374     0.07200
H2282       H  0.60341338  0.47606577  0.39612444     0.08400
H2283       H  0.58984558  0.45837544  0.43399590     0.07400
H2284       H  0.53815688  0.43123281  0.25227311     0.02300
H2285       H  0.53573102  0.44926936  0.25961624     0.02800
H2286       H  0.52294477  0.43023384  0.29414115     0.06300
H2287       H  0.57215161  0.50241520  0.26129815     0.05200
H2288       H  0.57982441  0.49478873  0.30469375    -0.00500
H2289       H  0.55718877  0.48255653  0.29056877     0.01000
H2290       H  0.59502178  0.45108604  0.15713712     0.04600
H2291       H  0.59095170  0.45901436  0.10742631     0.06600
H2292       H  0.57365662  0.43933493  0.13345691     0.07400
C2293       C  0.56524512  0.47605310  0.73290331    -0.22200
C2294       C  0.57395215  0.46905643  0.75099977     0.09800
C2295       C  0.57791356  0.45914832  0.72212031     0.10200
C2296       C  0.57263403  0.45607433  0.67583795    -0.17100
C2297       C  0.56342894  0.46264352  0.65804118    -0.27500
C2298       C  0.56017718  0.47323950  0.68664310     0.18500
C2299       C  0.57895725  0.47264447  0.80022206     0.12500
C2300       C  0.58753317  0.45171935  0.74035567    -0.11900
H2301       H  0.57515829  0.44799715  0.65394732     0.12800
C2302       C  0.55193718  0.48228004  0.66941870    -0.22700
H2303       H  0.56256568  0.48397554  0.75501722     0.08400
C2304       C  0.59368235  0.48849952  0.81413260     0.04700
C2305       C  0.59685189  0.49227343  0.86143040    -0.20000
C2306       C  0.58555562  0.48063178  0.89541938    -0.12200
C2307       C  0.57107576  0.46441890  0.88124242     0.13400
C2308       C  0.56801190  0.46064561  0.83373701    -0.22700
C2309       C  0.60585735  0.50157507  0.77897822    -0.05700
H2310       H  0.60801542  0.50464650  0.87188414     0.15000
C2311       C  0.55833369  0.45136338  0.91558915    -0.15900
H2312       H  0.55668441  0.44851804  0.82258916     0.09300
H2313       H  0.56046052  0.49634521  0.67697701     0.07200
H2314       H  0.53933983  0.47715463  0.68745291     0.08400
H2315       H  0.54991290  0.48092407  0.63162556     0.07400
H2316       H  0.58007067  0.44284979  0.76931132     0.02300
H2317       H  0.60031368  0.46231961  0.75300347     0.02800
H2318       H  0.58964574  0.44433383  0.71322795     0.06300
H2319       H  0.61686333  0.51324500  0.79564148     0.05200
H2320       H  0.59892768  0.50573494  0.75807935    -0.00500
H2321       H  0.61110927  0.49574993  0.75573090     0.01000
H2322       H  0.55257997  0.45710805  0.93714674     0.04600
H2323       H  0.56490007  0.44719573  0.93798118     0.06600
H2324       H  0.54763939  0.43964792  0.89820381     0.07400
C2325       C  0.54824209  0.65908263  0.41716903    -0.22200
C2326       C  0.54496954  0.66972288  0.44452899     0.09800
C2327       C  0.53278523  0.66242134  0.48122327     0.10200
C2328       C  0.52372139  0.64454658  0.48869431    -0.17100
C2329       C  0.52671538  0.63376813  0.46085050    -0.27500
C2330       C  0.53924284  0.64118120  0.42457716     0.18500
C2331       C  0.55362256  0.68825734  0.43250705     0.12500
C2332       C  0.52949550  0.67352725  0.51286306    -0.11900
H2333       H  0.51423870  0.63893417  0.51660935     0.12800
C2334       C  0.54291232  0.63072783  0.39132289    -0.22700
H2335       H  0.55752188  0.66472727  0.38876541     0.08400
C2336       C  0.57108070  0.70054579  0.44253628     0.04700
C2337       C  0.57843536  0.71795897  0.43124182    -0.20000
C2338       C  0.56871552  0.72344713  0.41054173    -0.12200
C2339       C  0.55125040  0.71099900  0.39982239     0.13400
C2340       C  0.54399156  0.69357871  0.41079254    -0.22700
C2341       C  0.58182787  0.69534721  0.46601084    -0.05700
H2342       H  0.59179194  0.72741349  0.43954652     0.15000
C2343       C  0.54024855  0.71579411  0.37583094    -0.15900
H2344       H  0.53064805  0.68400575  0.40269384     0.09300
H2345       H  0.55647721  0.63461747  0.39497543     0.07200
H2346       H  0.54110669  0.63330235  0.35535557     0.08400
H2347       H  0.53435984  0.61662131  0.39623625     0.07400
H2348       H  0.52442284  0.67985082  0.49293149     0.02300
H2349       H  0.54170963  0.68359851  0.52946809     0.02800
H2350       H  0.51993016  0.66582757  0.54060818     0.06300
H2351       H  0.59513823  0.70660996  0.47217454     0.05200
H2352       H  0.58272038  0.68584901  0.44409571    -0.00500
H2353       H  0.57582558  0.68944222  0.49991979     0.01000
H2354       H  0.52730622  0.70424750  0.36774151     0.04600
H2355       H  0.54657162  0.72234065  0.34276269     0.06600
H2356       H  0.53827884  0.72445824  0.39838625     0.07400
C2357       C  0.46852364  0.56814320  0.18943618    -0.22200
C2358       C  0.45545207  0.55631748  0.21961042     0.09800
C2359       C  0.44031910  0.54183684  0.20165435     0.10200
C2360       C  0.43895047  0.53906447  0.15364966    -0.17100
C2361       C  0.45246182  0.55034410  0.12331048    -0.27500
C2362       C  0.46745186  0.56522721  0.14151650     0.18500
C2363       C  0.45921994  0.55814701  0.26947203     0.12500
C2364       C  0.42595588  0.52903723  0.23324996    -0.11900
H2365       H  0.42749060  0.52767743  0.13977774     0.12800
C2366       C  0.48319163  0.57761932  0.11281094    -0.22700
H2367       H  0.48022601  0.57913946  0.20372426     0.08400
C2368       C  0.46920687  0.55237313  0.28701055     0.04700
C2369       C  0.47488000  0.55654145  0.33253687    -0.20000
C2370       C  0.47076577  0.56627884  0.36122257    -0.12200
C2371       C  0.45986325  0.57122781  0.34444604     0.13400
C2372       C  0.45419434  0.56701217  0.29856495    -0.22700
C2373       C  0.47415640  0.54206985  0.25735600    -0.05700
H2374       H  0.48295391  0.55248063  0.34557552     0.15000
C2375       C  0.45470090  0.58173600  0.37223080    -0.15900
H2376       H  0.44642513  0.57131289  0.28477665     0.09300
H2377       H  0.49459072  0.57819909  0.12632403     0.07200
H2378       H  0.48552497  0.59072812  0.11541833     0.08400
H2379       H  0.48232503  0.57399699  0.07590076     0.07400
H2380       H  0.42105997  0.53568029  0.25444081     0.02300
H2381       H  0.43078164  0.52328896  0.25651389     0.02800
H2382       H  0.41502302  0.51838041  0.21354461     0.06300
H2383       H  0.48185258  0.53842813  0.27673664     0.05200
H2384       H  0.48200121  0.54976263  0.22704805    -0.00500
H2385       H  0.46234890  0.53000682  0.24510396     0.01000
H2386       H  0.45879121  0.59374442  0.35334020     0.04600
H2387       H  0.46052606  0.58568672  0.40674057     0.06600
H2388       H  0.44045776  0.57413354  0.37682655     0.07400
C2389       C  0.46105349  0.56004226  0.68572322    -0.22200
C2390       C  0.47288810  0.57217561  0.71745454     0.09800
C2391       C  0.48823935  0.58706880  0.70136437     0.10200
C2392       C  0.49155987  0.58938387  0.65365356    -0.17100
C2393       C  0.48004162  0.57697478  0.62167181    -0.27500
C2394       C  0.46450642  0.56212482  0.63793444     0.18500
C2395       C  0.47001775  0.56785755  0.76711165     0.12500
C2396       C  0.50129796  0.60026990  0.73462018    -0.11900
H2397       H  0.50349811  0.60070887  0.64129040     0.12800
C2398       C  0.45211841  0.54786596  0.60561045    -0.22700
H2399       H  0.44945860  0.54846802  0.69861085     0.08400
C2400       C  0.45864540  0.57004102  0.79516286     0.04700
C2401       C  0.45579007  0.56470789  0.84145046    -0.20000
C2402       C  0.46387262  0.55702611  0.85960195    -0.12200
C2403       C  0.47575424  0.55547189  0.83185571     0.13400
C2404       C  0.47863749  0.56088723  0.78588744    -0.22700
C2405       C  0.44947193  0.57781550  0.77606962    -0.05700
H2406       H  0.44672706  0.56590223  0.86295962     0.15000
C2407       C  0.48567945  0.54842679  0.85077908    -0.15900
H2408       H  0.48749001  0.55944857  0.76409983     0.09300
H2409       H  0.44112802  0.53688493  0.62463070     0.07200
H2410       H  0.45889051  0.54282613  0.58564310     0.08400
H2411       H  0.44674496  0.55282229  0.58151977     0.07400
H2412       H  0.50622649  0.59423853  0.75641204     0.02300
H2413       H  0.49519735  0.60541117  0.75718549     0.02800
H2414       H  0.51248606  0.61128853  0.71625514     0.06300
H2415       H  0.44117393  0.57876383  0.80275713     0.05200
H2416       H  0.44117627  0.56968951  0.74706873    -0.00500
H2417       H  0.45907862  0.59101783  0.76328045     0.01000
H2418       H  0.47677900  0.53465226  0.86014776     0.04600
H2419       H  0.49284090  0.55602817  0.88183592     0.06600
H2420       H  0.49518094  0.54917790  0.82506005     0.07400
C2421       C  0.52915095  0.50353371  0.46965925    -0.22200
C2422       C  0.51741180  0.50358417  0.50106528     0.09800
C2423       C  0.50917326  0.49062905  0.53492018     0.10200
C2424       C  0.51319862  0.47809587  0.53733145    -0.17100
C2425       C  0.52543897  0.47840661  0.50703062    -0.27500
C2426       C  0.53315920  0.49099736  0.47181722     0.18500
C2427       C  0.51392241  0.51733568  0.49776643     0.12500
C2428       C  0.49658981  0.49039669  0.56942757    -0.11900
H2429       H  0.50728930  0.46843996  0.56417508     0.12800
C2430       C  0.54524095  0.49136922  0.43509542    -0.22700
H2431       H  0.53516928  0.51331759  0.44313673     0.08400
C2432       C  0.52544899  0.53411613  0.51552834     0.04700
C2433       C  0.52158217  0.54672512  0.51158221    -0.20000
C2434       C  0.50630677  0.54285844  0.49092869    -0.12200
C2435       C  0.49476988  0.52595739  0.47301276     0.13400
C2436       C  0.49881636  0.51346475  0.47647944    -0.22700
C2437       C  0.54166728  0.53860249  0.53932723    -0.05700
H2438       H  0.53039462  0.55959082  0.52547293     0.15000
C2439       C  0.47839297  0.52101985  0.44918289    -0.15900
H2440       H  0.49012276  0.50054650  0.46270531     0.09300
H2441       H  0.55823932  0.50338074  0.43892350     0.07200
H2442       H  0.54034273  0.49122452  0.40038496     0.08400
H2443       H  0.54641171  0.48010457  0.43603904     0.07400
H2444       H  0.48547162  0.48888011  0.55114673     0.02300
H2445       H  0.50306317  0.50269452  0.58957750     0.02800
H2446       H  0.49155039  0.47956781  0.59407417     0.06300
H2447       H  0.54909713  0.55220066  0.55202177     0.05200
H2448       H  0.55007243  0.53689579  0.51488486    -0.00500
H2449       H  0.53831267  0.53002681  0.56943466     0.01000
H2450       H  0.48142915  0.52986579  0.41992836     0.04600
H2451       H  0.46944556  0.52167051  0.47408966     0.06600
H2452       H  0.47155868  0.50761748  0.43506901     0.07400
C2453       C  0.34259723  0.88488011  0.39856218    -0.22200
C2454       C  0.35281268  0.88091638  0.37169190     0.09800
C2455       C  0.34553807  0.86954870  0.33341550     0.10200
C2456       C  0.32803951  0.86200803  0.32389295    -0.17100
C2457       C  0.31774320  0.86579904  0.35119698    -0.27500
C2458       C  0.32517217  0.87753849  0.38888391     0.18500
C2459       C  0.37089087  0.88838063  0.38552333     0.12500
C2460       C  0.35622478  0.86549909  0.30237716    -0.11900
H2461       H  0.32229816  0.85297323  0.29516079     0.12800
C2462       C  0.31513459  0.88200399  0.42141765    -0.22700
H2463       H  0.34816823  0.89342990  0.42830184     0.08400
C2464       C  0.38351240  0.90622849  0.38214521     0.04700
C2465       C  0.40029958  0.91269327  0.39687225    -0.20000
C2466       C  0.40491774  0.90177391  0.41463726    -0.12200
C2467       C  0.39216470  0.88384276  0.41814406     0.13400
C2468       C  0.37530446  0.87744379  0.40385020    -0.22700
C2469       C  0.37940773  0.91843682  0.36212731    -0.05700
H2470       H  0.40994900  0.92641003  0.39387827     0.15000
C2471       C  0.39600742  0.87136252  0.43752425    -0.15900
H2472       H  0.36542851  0.86379281  0.40711627     0.09300
H2473       H  0.32055869  0.89606597  0.41956973     0.07200
H2474       H  0.31630802  0.87886668  0.45735564     0.08400
H2475       H  0.30121768  0.87492193  0.41426636     0.07400
H2476       H  0.36105536  0.85892319  0.32215873     0.02300
H2477       H  0.36733984  0.87765671  0.28779468     0.02800
H2478       H  0.34862539  0.85685906  0.27313621     0.06300
H2479       H  0.39097636  0.93184723  0.36024913     0.05200
H2480       H  0.36956090  0.91875226  0.38393980    -0.00500
H2481       H  0.37445754  0.91414592  0.32657946     0.01000
H2482       H  0.38431656  0.85801906  0.43919687     0.04600
H2483       H  0.40095269  0.87541112  0.47316107     0.06600
H2484       H  0.40568039  0.87092458  0.41515784     0.07400
C2485       C  0.66834481  0.13513672  0.54765305    -0.22200
C2486       C  0.67744696  0.15065467  0.57288277     0.09800
C2487       C  0.66905299  0.15885803  0.58797578     0.10200
C2488       C  0.65179531  0.15156545  0.57653873    -0.17100
C2489       C  0.64255218  0.13604659  0.55108770    -0.27500
C2490       C  0.65092324  0.12760216  0.53681665     0.18500
C2491       C  0.69607969  0.15882782  0.58069644     0.12500
C2492       C  0.67826544  0.17521562  0.61670846    -0.11900
H2493       H  0.64541076  0.15793659  0.58821704     0.12800
C2494       C  0.64184106  0.11094219  0.50931792    -0.22700
H2495       H  0.67498183  0.12901187  0.53605620     0.08400
C2496       C  0.70222220  0.15354585  0.61635095     0.04700
C2497       C  0.72004805  0.16274549  0.62416829    -0.20000
C2498       C  0.73169239  0.17735644  0.59794967    -0.12200
C2499       C  0.72548428  0.18233305  0.56150118     0.13400
C2500       C  0.70776566  0.17285635  0.55306817    -0.22700
C2501       C  0.68993863  0.13859780  0.64689450    -0.05700
H2502       H  0.72484821  0.15892330  0.65192489     0.15000
C2503       C  0.73744348  0.19745793  0.53086899    -0.15900
H2504       H  0.70288747  0.17669385  0.52554078     0.09300
H2505       H  0.63111193  0.10048523  0.53023866     0.07200
H2506       H  0.65065499  0.10673129  0.49939090     0.08400
H2507       H  0.63675227  0.11266374  0.47707718     0.07400
H2508       H  0.68944550  0.18568078  0.59698331     0.02300
H2509       H  0.68288423  0.17288196  0.64892665     0.02800
H2510       H  0.66968249  0.17971282  0.62655647     0.06300
H2511       H  0.69685157  0.13633229  0.67355937     0.05200
H2512       H  0.68246902  0.12663427  0.62566965    -0.00500
H2513       H  0.68089488  0.14128540  0.66482329     0.01000
H2514       H  0.74746802  0.19573751  0.51510069     0.04600
H2515       H  0.74368264  0.20967476  0.55127705     0.06600
H2516       H  0.73043432  0.19872468  0.50239531     0.07400
C2517       C  0.53792908  0.03472728  0.52769972    -0.22200
C2518       C  0.52575949  0.03112557  0.49421778     0.09800
C2519       C  0.52613210  0.04469206  0.47203402     0.10200
C2520       C  0.53926660  0.06175681  0.48266136    -0.17100
C2521       C  0.55182861  0.06541743  0.51519770    -0.27500
C2522       C  0.55086185  0.05175165  0.53911575     0.18500
C2523       C  0.51281886  0.01291877  0.48325063     0.12500
C2524       C  0.51272842  0.04114442  0.43731819    -0.11900
H2525       H  0.53994270  0.07228611  0.46481691     0.12800
C2526       C  0.56265646  0.05448545  0.57794936    -0.22700
H2527       H  0.53722429  0.02413621  0.54530772     0.08400
C2528       C  0.51610953  0.00398382  0.44893205     0.04700
C2529       C  0.50422640  0.98621091  0.44295095    -0.20000
C2530       C  0.48927185  0.97724856  0.47081913    -0.12200
C2531       C  0.48614151  0.98625179  0.50574479     0.13400
C2532       C  0.49787261  0.00409663  0.51087190    -0.22700
C2533       C  0.53227858  0.01316412  0.41928578    -0.05700
H2534       H  0.50662137  0.97925926  0.41641769     0.15000
C2535       C  0.47132627  0.97751867  0.54016048    -0.15900
H2536       H  0.49573658  0.01107847  0.53792506     0.09300
H2537       H  0.57036261  0.04900286  0.56787994     0.07200
H2538       H  0.55478099  0.04772957  0.60924616     0.08400
H2539       H  0.57154505  0.06821804  0.58789270     0.07400
H2540       H  0.49974068  0.03388463  0.45406212     0.02300
H2541       H  0.51302252  0.03336493  0.40796478     0.02800
H2542       H  0.51495124  0.05328862  0.42328535     0.06300
H2543       H  0.53285462  0.00419767  0.39424336     0.05200
H2544       H  0.54378964  0.01899178  0.44146262    -0.00500
H2545       H  0.53275587  0.02353034  0.39944348     0.01000
H2546       H  0.47643590  0.98090042  0.57578438     0.04600
H2547       H  0.46365737  0.96325356  0.53762392     0.06600
H2548       H  0.46265459  0.98212232  0.53546708     0.07400
C2549       C  0.48000080  0.12782862  0.03550112    -0.22200
C2550       C  0.48298925  0.13756735  0.07621996     0.09800
C2551       C  0.49540930  0.13958989  0.10738156     0.10200
C2552       C  0.50494196  0.13228224  0.09647796    -0.17100
C2553       C  0.50233837  0.12291688  0.05520514    -0.27500
C2554       C  0.48962560  0.12058920  0.02428827     0.18500
C2555       C  0.47451386  0.14721332  0.08324900     0.12500
C2556       C  0.49890187  0.14984917  0.15160150    -0.11900
H2557       H  0.51463256  0.13401886  0.12020182     0.12800
C2558       C  0.48654186  0.11154734  0.97808516    -0.22700
H2559       H  0.47061396  0.12651427  0.01133331     0.08400
C2560       C  0.48154998  0.16349220  0.06282937     0.04700
C2561       C  0.47401454  0.17288289  0.07245595    -0.20000
C2562       C  0.45954774  0.16646002  0.10207850    -0.12200
C2563       C  0.45264208  0.15019858  0.12329281     0.13400
C2564       C  0.46010440  0.14069818  0.11299699    -0.22700
C2565       C  0.49717910  0.17105793  0.03122691    -0.05700
H2566       H  0.47941056  0.18532827  0.05632694     0.15000
C2567       C  0.43814762  0.14279422  0.15871953    -0.15900
H2568       H  0.45498140  0.12834868  0.12942163     0.09300
H2569       H  0.48830360  0.12045796  0.95022938     0.07200
H2570       H  0.47312971  0.09999660  0.97716502     0.08400
H2571       H  0.49547971  0.10738460  0.97017720     0.07400
H2572       H  0.48696934  0.14387525  0.17332410     0.02300
H2573       H  0.50320496  0.16333521  0.14362682     0.02800
H2574       H  0.50910348  0.15026822  0.17194547     0.06300
H2575       H  0.50115261  0.18399562  0.01855925     0.05200
H2576       H  0.49429892  0.16243225  0.00072731    -0.00500
H2577       H  0.50816867  0.17247162  0.04999519     0.01000
H2578       H  0.42683789  0.13058680  0.14512786     0.04600
H2579       H  0.43408475  0.15165194  0.16883806     0.06600
H2580       H  0.44239586  0.13992932  0.19078649     0.07400
C2581       C  0.55033135  0.10759514  0.24957166    -0.22200
C2582       C  0.56546848  0.12352742  0.25963631     0.09800
C2583       C  0.57417060  0.13562843  0.22393367     0.10200
C2584       C  0.56770904  0.13136046  0.17872709    -0.17100
C2585       C  0.55261410  0.11527190  0.16818660    -0.27500
C2586       C  0.54370265  0.10330220  0.20462542     0.18500
C2587       C  0.57259544  0.12648578  0.30697979     0.12500
C2588       C  0.59017233  0.15311088  0.23372278    -0.11900
H2589       H  0.57450605  0.14071110  0.15149179     0.12800
C2590       C  0.52735708  0.08582862  0.19686409    -0.22700
H2591       H  0.54380015  0.09832169  0.27714044     0.08400
C2592       C  0.56508273  0.12969475  0.34566008     0.04700
C2593       C  0.57103910  0.13017051  0.39031546    -0.20000
C2594       C  0.58420873  0.12726491  0.39740713    -0.12200
C2595       C  0.59229519  0.12494061  0.35802666     0.13400
C2596       C  0.58636647  0.12460728  0.31358296    -0.22700
C2597       C  0.55067598  0.13244045  0.33979455    -0.05700
H2598       H  0.56484909  0.13210160  0.41994473     0.15000
C2599       C  0.60705676  0.12258181  0.36198981    -0.15900
H2600       H  0.59211137  0.12222011  0.28367362     0.09300
H2601       H  0.51704197  0.08742576  0.18497824     0.07200
H2602       H  0.52254305  0.07813905  0.22905898     0.08400
H2603       H  0.52974971  0.07832224  0.17084088     0.07400
H2604       H  0.60045396  0.15162392  0.24646624     0.02300
H2605       H  0.58720043  0.15998935  0.26039123     0.02800
H2606       H  0.59519213  0.16121472  0.20227608     0.06300
H2607       H  0.54648096  0.13516744  0.37337714     0.05200
H2608       H  0.53937034  0.12070921  0.32435531    -0.00500
H2609       H  0.55507894  0.14359060  0.31672904     0.01000
H2610       H  0.61246216  0.12221344  0.32755583     0.04600
H2611       H  0.60259025  0.11016650  0.37909326     0.06600
H2612       H  0.61761066  0.13351769  0.38196916     0.07400
C2613       C  0.58259443  0.14031797  0.73580826    -0.22200
C2614       C  0.57051243  0.12513299  0.75926518     0.09800
C2615       C  0.56251416  0.10914249  0.73547596     0.10200
C2616       C  0.56696963  0.10866005  0.68896911    -0.17100
C2617       C  0.57919767  0.12378935  0.66528015    -0.27500
C2618       C  0.58722881  0.13987449  0.68924530     0.18500
C2619       C  0.56663628  0.12601241  0.80909242     0.12500
C2620       C  0.54935529  0.09255656  0.75935335    -0.11900
H2621       H  0.56085632  0.09631692  0.67091128     0.12800
C2622       C  0.60135923  0.15667778  0.66820941    -0.22700
H2623       H  0.58881676  0.15256098  0.75438059     0.08400
C2624       C  0.57611520  0.12464792  0.84409090     0.04700
C2625       C  0.57072030  0.12347894  0.89057924    -0.20000
C2626       C  0.55594558  0.12347932  0.90283527    -0.12200
C2627       C  0.54724510  0.12614939  0.86783056     0.13400
C2628       C  0.55255657  0.12710235  0.82141857    -0.22700
C2629       C  0.59151163  0.12374876  0.83209765    -0.05700
H2630       H  0.57748892  0.12153189  0.91712825     0.15000
C2631       C  0.53246263  0.12827046  0.87792033    -0.15900
H2632       H  0.54549938  0.12847321  0.79449895     0.09300
H2633       H  0.61298472  0.16255727  0.68998257     0.07200
H2634       H  0.59704097  0.16571958  0.66692610     0.08400
H2635       H  0.60533938  0.15522319  0.63296472     0.07400
H2636       H  0.53827038  0.09318827  0.77167845     0.02300
H2637       H  0.55524676  0.09055909  0.78936136     0.02800
H2638       H  0.54437538  0.08118335  0.73582554     0.06300
H2639       H  0.59746468  0.12264435  0.86345934     0.05200
H2640       H  0.60140158  0.13562746  0.81355581    -0.00500
H2641       H  0.58755145  0.11231724  0.80956694     0.01000
H2642       H  0.53518621  0.14025982  0.86145727     0.04600
H2643       H  0.53044008  0.12959512  0.91527426     0.06600
H2644       H  0.52041876  0.11707446  0.86342069     0.07400
C2645       C  0.54559192  0.88816342  0.96310221    -0.22200
C2646       C  0.55467784  0.89011314  0.92171882     0.09800
C2647       C  0.55583648  0.90137350  0.88761535     0.10200
C2648       C  0.54746143  0.91011009  0.89522046    -0.17100
C2649       C  0.53784720  0.90767180  0.93595216    -0.27500
C2650       C  0.53730766  0.89694354  0.97091429     0.18500
C2651       C  0.56277375  0.88011982  0.91493002     0.12500
C2652       C  0.56570911  0.90395520  0.84305958    -0.11900
H2653       H  0.54787502  0.91836598  0.86855377     0.12800
C2654       C  0.52852704  0.89481498  0.01726026    -0.22700
H2655       H  0.54499767  0.87974335  0.98956461     0.08400
C2656       C  0.57914773  0.88605650  0.93264303     0.04700
C2657       C  0.58603884  0.87586495  0.92677526    -0.20000
C2658       C  0.57679281  0.85966446  0.90433673    -0.12200
C2659       C  0.56039240  0.85385203  0.88598211     0.13400
C2660       C  0.55365506  0.86420386  0.89150198    -0.22700
C2661       C  0.58926603  0.90310770  0.95802966    -0.05700
H2662       H  0.59858125  0.88043361  0.94074989     0.15000
C2663       C  0.54998960  0.83697042  0.85981077    -0.15900
H2664       H  0.54109766  0.85980221  0.87787221     0.09300
H2665       H  0.53796685  0.89846491  0.04514354     0.07200
H2666       H  0.51778541  0.88111122  0.02173565     0.08400
H2667       H  0.52331909  0.90305499  0.02172111     0.07400
H2668       H  0.55999301  0.89144293  0.82416904     0.02300
H2669       H  0.57938248  0.90905798  0.85056176     0.02800
H2670       H  0.56541054  0.91325348  0.82020287     0.06300
H2671       H  0.60190519  0.90592601  0.96941459     0.05200
H2672       H  0.58187895  0.90288917  0.98916453    -0.00500
H2673       H  0.59169473  0.91369212  0.93508416     0.01000
H2674       H  0.54606094  0.82600191  0.88309735     0.04600
H2675       H  0.55773528  0.83673367  0.83017846     0.06600
H2676       H  0.53802557  0.83507354  0.84583969     0.07400
C2677       C  0.47390970  0.90075034  0.25518370    -0.22200
C2678       C  0.48070354  0.91488356  0.22565087     0.09800
C2679       C  0.48417260  0.93080758  0.24312345     0.10200
C2680       C  0.48000479  0.93202021  0.28935945    -0.17100
C2681       C  0.47235676  0.91767794  0.31888144    -0.27500
C2682       C  0.46950952  0.90179857  0.30153541     0.18500
C2683       C  0.48323490  0.91268750  0.17580581     0.12500
C2684       C  0.49215186  0.94649826  0.21276089    -0.11900
H2685       H  0.48249518  0.94426634  0.30233085     0.12800
C2686       C  0.46110777  0.88533957  0.32890102    -0.22700
H2687       H  0.47138468  0.88858046  0.24140626     0.08400
C2688       C  0.49852332  0.91460057  0.15861459     0.04700
C2689       C  0.50140208  0.91510664  0.11067030    -0.20000
C2690       C  0.48951482  0.91408393  0.07938694    -0.12200
C2691       C  0.47378689  0.91143003  0.09683847     0.13400
C2692       C  0.47079822  0.91047706  0.14486967    -0.22700
C2693       C  0.51209155  0.91684133  0.19085517    -0.05700
H2694       H  0.51339973  0.91704597  0.09752480     0.15000
C2695       C  0.46034801  0.91081499  0.06716102    -0.15900
H2696       H  0.45907902  0.90906164  0.15849680     0.09300
H2697       H  0.47042181  0.88147065  0.33261491     0.07200
H2698       H  0.44973746  0.87490378  0.30999424     0.08400
H2699       H  0.45637360  0.88608113  0.36361140     0.07400
H2700       H  0.48354251  0.94398934  0.18353355     0.02300
H2701       H  0.50479753  0.94954910  0.19887452     0.02800
H2702       H  0.49431727  0.95802542  0.23209869     0.06300
H2703       H  0.52336922  0.91834013  0.17166414     0.05200
H2704       H  0.50656651  0.90535196  0.21329973    -0.00500
H2705       H  0.51671281  0.92854106  0.21283140     0.01000
H2706       H  0.44796956  0.89810763  0.07125659     0.04600
H2707       H  0.46375534  0.91277753  0.03001901     0.06600
H2708       H  0.45834530  0.92114144  0.07862871     0.07400
C2709       C  0.47088500  0.89851187  0.74782005    -0.22200
C2710       C  0.47768411  0.91303172  0.71960707     0.09800
C2711       C  0.49016808  0.92950653  0.73740577     0.10200
C2712       C  0.49553187  0.93109787  0.78312173    -0.17100
C2713       C  0.48873323  0.91662699  0.81177468    -0.27500
C2714       C  0.47644066  0.90001604  0.79349678     0.18500
C2715       C  0.47143325  0.91096161  0.67171231     0.12500
C2716       C  0.49769859  0.94545329  0.70826601    -0.11900
H2717       H  0.50496843  0.94382419  0.79682158     0.12800
C2718       C  0.46948342  0.88352522  0.81976920    -0.22700
H2719       H  0.46140559  0.88586277  0.73377404     0.08400
C2720       C  0.48026124  0.90938499  0.63349341     0.04700
C2721       C  0.47530278  0.91000594  0.58845992    -0.20000
C2722       C  0.46167002  0.91215956  0.58065814    -0.12200
C2723       C  0.45214875  0.91261079  0.61945046     0.13400
C2724       C  0.45720461  0.91201449  0.66433791    -0.22700
C2725       C  0.49507619  0.90732550  0.64036969    -0.05700
H2726       H  0.48252735  0.90938892  0.55926180     0.15000
C2727       C  0.43681713  0.91399711  0.61444603    -0.15900
H2728       H  0.45040443  0.91301604  0.69405016     0.09300
H2729       H  0.47184595  0.87471624  0.79914658     0.07200
H2730       H  0.45537499  0.87708258  0.82551042     0.08400
H2731       H  0.47562708  0.88545220  0.85350834     0.07400
H2732       H  0.48727033  0.94702063  0.69724523     0.02300
H2733       H  0.50428269  0.94429868  0.67714750     0.02800
H2734       H  0.50727881  0.95731369  0.72756105     0.06300
H2735       H  0.50058575  0.90623639  0.60689294     0.05200
H2736       H  0.49053362  0.89543474  0.66039113    -0.00500
H2737       H  0.50549442  0.91863480  0.65961125     0.01000
H2738       H  0.43052763  0.91322732  0.64836116     0.04600
H2739       H  0.42704394  0.90322702  0.59237364     0.06600
H2740       H  0.44094145  0.92660690  0.59909836     0.07400
C2741       C  0.50894931  0.02494432  0.01988698    -0.22200
C2742       C  0.51943146  0.02384471  0.98604256     0.09800
C2743       C  0.53196046  0.03881858  0.96210124     0.10200
C2744       C  0.53408318  0.05469445  0.97353848    -0.17100
C2745       C  0.52385743  0.05597413  0.00808459    -0.27500
C2746       C  0.51106906  0.04082727  0.03163905     0.18500
C2747       C  0.51775953  0.00710166  0.97786979     0.12500
C2748       C  0.54324366  0.03805919  0.92494094    -0.11900
H2749       H  0.54379917  0.06621872  0.95525536     0.12800
C2750       C  0.50003485  0.04086360  0.07086306    -0.22700
H2751       H  0.49938800  0.01337824  0.03832575     0.08400
C2752       C  0.52557287  0.00148802  0.00738693     0.04700
C2753       C  0.52405307  0.98575976  0.99785758    -0.20000
C2754       C  0.51473740  0.97546135  0.95979593    -0.12200
C2755       C  0.50717475  0.98123235  0.92975563     0.13400
C2756       C  0.50876223  0.99700362  0.93923929    -0.22700
C2757       C  0.53558802  0.01216187  0.04875573    -0.05700
H2758       H  0.52982838  0.98128747  0.02078680     0.15000
C2759       C  0.49798158  0.97111745  0.88681772    -0.15900
H2760       H  0.50304252  0.00154777  0.91635935     0.09300
H2761       H  0.50156168  0.03496384  0.10176569     0.07200
H2762       H  0.48628737  0.03308348  0.06079243     0.08400
H2763       H  0.50345600  0.05391530  0.08146640     0.07400
H2764       H  0.53513294  0.02926813  0.89656687     0.02300
H2765       H  0.55071642  0.03319090  0.93962050     0.02800
H2766       H  0.55250799  0.05097699  0.90993049     0.06300
H2767       H  0.54105204  0.00601426  0.06785099     0.05200
H2768       H  0.52700851  0.01371082  0.07292332    -0.00500
H2769       H  0.54641105  0.02510563  0.03735306     0.01000
H2770       H  0.48635925  0.95839371  0.89628827     0.04600
H2771       H  0.50677664  0.96911979  0.86486639     0.06600
H2772       H  0.49372470  0.97799567  0.86595986     0.07400
loop_ 
_geom_bond_atom_site_label_1 
_geom_bond_atom_site_label_2 
_geom_bond_distance 
_geom_bond_site_symmetry_2 
_ccdc_geom_bond_type 
In1           O3   2.223       .  S
In1           O4   2.259       .  S
In1          O12   2.227       .  S
In1           O6   2.255       .  S
In1           O8   2.251       .  S
In1           O9   2.261       .  S
In1          O10   2.225       .  S
In1          O13   2.212   1_556  S
C2            O8   1.266       .  A
C2           O10   1.261       .  A
C2         C2754   1.476       .  S
O3           C11   1.262       .  A
O4           C11   1.267       .  A
C5           O12   1.261       .  A
C5            O6   1.265       .  A
C5         C2649   1.475       .  S
C7            O9   1.268   1_554  A
C7           O13   1.261       .  A
C7         C2690   1.482       .  S
C11        C2713   1.484       .  S
In14         O16   2.233   1_554  S
In14         O17   2.272   1_554  S
In14         O25   2.237       .  S
In14         O19   2.258       .  S
In14         O21   2.258       .  S
In14         O22   2.270       .  S
In14         O23   2.239       .  S
In14         O26   2.235       .  S
C15          O21   1.264       .  A
C15          O23   1.261       .  A
C15        C2745   1.483       .  S
O16          C24   1.259       .  A
O17          C24   1.265       .  A
C18          O25   1.261       .  A
C18          O19   1.264       .  A
C18        C2553   1.480       .  S
C20          O22   1.267       .  A
C20          O26   1.260       .  A
C20        C2585   1.497       .  S
C24        C2626   1.487       .  S
In27         O29   2.229       .  S
In27         O30   2.273       .  S
In27         O38   2.240       .  S
In27         O32   2.234       .  S
In27         O34   2.228       .  S
In27         O35   2.278       .  S
In27         O36   2.223       .  S
In27         O39   2.233       .  S
C28          O34   1.262       .  A
C28          O36   1.261       .  A
C28        C2521   1.466       .  S
O29          C37   1.259       .  A
O30          C37   1.267       .  A
C31          O38   1.265       .  A
C31          O32   1.260       .  A
C31        C2489   1.484       .  S
C33          O35   1.266       .  A
C33          O39   1.258       .  A
C33        C2594   1.497       .  S
C37        C2617   1.485       .  S
In40         O42   2.241       .  S
In40         O43   2.268       .  S
In40         O51   2.252       .  S
In40         O45   2.232       .  S
In40         O47   2.234       .  S
In40         O48   2.259       .  S
In40         O49   2.234       .  S
In40         O52   2.231       .  S
C41          O47   1.259       .  A
C41          O49   1.259       .  A
C41        C2530   1.468       .  S
O42          C50   1.258       .  A
O43          C50   1.263       .  A
C44          O51   1.263       .  A
C44          O45   1.261       .  A
C44        C2466   1.488       .  S
C46          O48   1.263       .  A
C46          O52   1.260       .  A
C46        C2681   1.487       .  S
C50        C2722   1.494       .  S
In53         O55   2.229       .  S
In53         O56   2.246       .  S
In53         O64   2.239       .  S
In53         O58   2.255       .  S
In53         O60   2.256       .  S
In53         O61   2.257       .  S
In53         O62   2.232       .  S
In53         O65   2.214       .  S
C54          O60   1.265       .  A
C54          O62   1.259       .  A
C54        C2434   1.484       .  S
O55          C63   1.261       .  A
O56          C63   1.263       .  A
C57          O64   1.262       .  A
C57          O58   1.264       .  A
C57        C2329   1.482       .  S
C59          O61   1.264       .  A
C59          O65   1.261       .  A
C59        C2370   1.476       .  S
C63        C2393   1.479       .  S
In66         O68   2.226       .  S
In66         O69   2.262       .  S
In66         O77   2.235       .  S
In66         O71   2.237       .  S
In66         O73   2.249       .  S
In66         O74   2.243       .  S
In66         O75   2.223       .  S
In66         O78   2.225       .  S
C67          O73   1.266       .  A
C67          O75   1.261       .  A
C67        C2425   1.475       .  S
O68          C76   1.259       .  A
O69          C76   1.265       .  A
C70          O77   1.261       .  A
C70          O71   1.264       .  A
C70        C2233   1.476       .  S
C72          O74   1.265       .  A
C72          O78   1.262       .  A
C72        C2265   1.488       .  S
C76        C2297   1.478       .  S
In79         O81   2.228   1_554  S
In79         O82   2.258   1_554  S
In79         O90   2.230       .  S
In79         O84   2.241       .  S
In79         O86   2.251       .  S
In79         O87   2.256       .  S
In79         O88   2.236       .  S
In79         O91   2.216       .  S
C80          O86   1.263       .  A
C80          O88   1.261       .  A
C80        C2201   1.488       .  S
O81          C89   1.261       .  A
O82          C89   1.265       .  A
C83          O90   1.263       .  A
C83          O84   1.264       .  A
C83        C2178   1.481       .  S
C85          O87   1.266       .  A
C85          O91   1.261       .  A
C85        C2274   1.483       .  S
C89        C2306   1.488       .  S
In92         O94   2.208       .  S
In92         O95   2.258       .  S
In92        O103   2.222       .  S
In92         O97   2.253       .  S
In92         O99   2.243       .  S
In92        O100   2.246   1_556  S
In92        O101   2.230       .  S
In92        O104   2.221   1_556  S
C93          O99   1.266       .  A
C93         O101   1.262       .  A
C93        C2210   1.477       .  S
O94         C102   1.259       .  A
O95         C102   1.266       .  A
C96         O103   1.261       .  A
C96          O97   1.264       .  A
C96        C2137   1.485       .  S
C98         O100   1.265       .  A
C98         O104   1.262       .  A
C98        C2361   1.476       .  S
C102       C2402   1.471       .  S
In105       O107   2.242   1_554  S
In105       O108   2.266   1_554  S
In105       O116   2.251       .  S
In105       O110   2.245       .  S
In105       O112   2.255       .  S
In105       O113   2.268       .  S
In105       O114   2.235       .  S
In105       O117   2.223       .  S
C106        O112   1.264       .  A
C106        O114   1.260       .  A
C106       C2105   1.487       .  S
O107        C115   1.261       .  A
O108        C115   1.264       .  A
C109        O116   1.263       .  A
C109        O110   1.262       .  A
C109       C2009   1.484       .  S
C111        O113   1.265       .  A
C111        O117   1.260       .  A
C111       C2041   1.485       .  S
C115       C2082   1.495       .  S
In118       O120   2.222       .  S
In118       O121   2.275       .  S
In118       O129   2.250       .  S
In118       O123   2.243       .  S
In118       O125   2.248       .  S
In118       O126   2.275   1_556  S
In118       O127   2.243       .  S
In118       O130   2.224   1_556  S
C119        O125   1.263       .  A
C119        O127   1.261       .  A
C119       C2114   1.476       .  S
O120        C128   1.259       .  A
O121        C128   1.265       .  A
C122        O129   1.262       .  A
C122        O123   1.261       .  A
C122       C1913   1.479       .  S
C124        O126   1.265       .  A
C124        O130   1.259       .  A
C124       C1945   1.487       .  S
C128       C1977   1.479       .  S
In131       O133   2.230       .  S
In131       O134   2.262       .  S
In131       O142   2.225       .  S
In131       O136   2.264       .  S
In131       O138   2.265       .  S
In131       O139   2.256       .  S
In131       O140   2.227       .  S
In131       O143   2.234       .  S
C132        O138   1.266       .  A
C132        O140   1.259       .  A
C132       C1881   1.490       .  S
O133        C141   1.260       .  A
O134        C141   1.265       .  A
C135        O142   1.260       .  A
C135        O136   1.266       .  A
C135       C1849   1.493       .  S
C137        O139   1.265       .  A
C137        O143   1.262       .  A
C137       C1954   1.491       .  S
C141       C1986   1.479       .  S
In144       O146   2.232       .  S
In144       O147   2.271       .  S
In144       O155   2.241       .  S
In144       O149   2.265       .  S
In144       O151   2.264       .  S
In144       O152   2.260       .  S
In144       O153   2.236       .  S
In144       O156   2.233       .  S
C145        O151   1.265       .  A
C145        O153   1.260       .  A
C145       C1890   1.481       .  S
O146        C154   1.259       .  A
O147        C154   1.265       .  A
C148        O155   1.261       .  A
C148        O149   1.264       .  A
C148       C1817   1.485       .  S
C150        O152   1.264       .  A
C150        O156   1.261       .  A
C150       C2050   1.484       .  S
C154       C2073   1.492       .  S
In157       O159   2.231       .  S
In157       O160   2.254       .  S
In157       O168   2.224       .  S
In157       O162   2.243       .  S
In157       O164   2.251       .  S
In157       O165   2.258       .  S
In157       O166   2.224       .  S
In157       O169   2.234       .  S
C158        O164   1.265       .  A
C158        O166   1.262       .  A
C158       C1785   1.473       .  S
O159        C167   1.262       .  A
O160        C167   1.266       .  A
C161        O168   1.261       .  A
C161        O162   1.265       .  A
C161       C2457   1.473       .  S
C163        O165   1.265       .  A
C163        O169   1.261       .  A
C163       C1762   1.488       .  S
C167       C1730   1.483       .  S
In170       O172   2.217       .  S
In170       O173   2.250       .  S
In170       O181   2.216       .  S
In170       O175   2.253       .  S
In170       O177   2.251       .  S
In170       O178   2.248       .  S
In170       O179   2.225       .  S
In170       O182   2.220       .  S
C171        O177   1.267       .  A
C171        O179   1.262       .  A
C171       C1794   1.479       .  S
O172        C180   1.262       .  A
O173        C180   1.267       .  A
C174        O181   1.262       .  A
C174        O175   1.267       .  A
C174       C1625   1.479       .  S
C176        O178   1.266       .  A
C176        O182   1.262       .  A
C176       C1689   1.474       .  S
C180       C1657   1.479       .  S
In183       O185   2.233       .  S
In183       O186   2.267       .  S
In183       O194   2.243       .  S
In183       O188   2.256       .  S
In183       O190   2.263       .  S
In183       O191   2.264       .  S
In183       O192   2.234       .  S
In183       O195   2.231       .  S
C184        O190   1.265       .  A
C184        O192   1.261       .  A
C184       C1602   1.485       .  S
O185        C193   1.259       .  A
O186        C193   1.263       .  A
C187        O194   1.260       .  A
C187        O188   1.263       .  A
C187       C1922   1.484       .  S
C189        O191   1.263       .  A
C189        O195   1.260       .  A
C189       C1753   1.482       .  S
C193       C1721   1.477       .  S
In196       O198   2.219       .  S
In196       O199   2.254       .  S
In196       O207   2.214       .  S
In196       O201   2.246       .  S
In196       O203   2.249       .  S
In196       O204   2.259       .  S
In196       O205   2.235       .  S
In196       O208   2.217       .  S
C197        O203   1.264       .  A
C197        O205   1.261       .  A
C197       C1593   1.478       .  S
O198        C206   1.261       .  A
O199        C206   1.265       .  A
C200        O207   1.260       .  A
C200        O201   1.265       .  A
C200       C1561   1.479       .  S
C202        O204   1.265       .  A
C202        O208   1.259       .  A
C202       C1698   1.476       .  S
C206       C1666   1.474       .  S
In209       O211   2.230       .  S
In209       O212   2.258       .  S
In209       O220   2.233       .  S
In209       O214   2.261       .  S
In209       O216   2.255       .  S
In209       O217   2.269       .  S
In209       O218   2.228       .  S
In209       O221   2.232       .  S
C210        O216   1.265       .  A
C210        O218   1.261       .  A
C210       C1529   1.480       .  S
O211        C219   1.262       .  A
O212        C219   1.266       .  A
C213        O220   1.260       .  A
C213        O214   1.264       .  A
C213       C1442   1.484       .  S
C215        O217   1.264       .  A
C215        O221   1.260       .  A
C215       C1497   1.490       .  S
C219       C1474   1.481       .  S
In222       O224   2.236       .  S
In222       O225   2.258       .  S
In222       O233   2.235       .  S
In222       O227   2.259       .  S
In222       O229   2.248       .  S
In222       O230   2.261       .  S
In222       O231   2.230       .  S
In222       O234   2.232       .  S
C223        O229   1.266       .  A
C223        O231   1.261       .  A
C223       C1538   1.476       .  S
O224        C232   1.261       .  A
O225        C232   1.266       .  A
C226        O233   1.262       .  A
C226        O227   1.265       .  A
C226       C1826   1.485       .  S
C228        O230   1.267       .  A
C228        O234   1.260       .  A
C228       C1401   1.487       .  S
C232       C1369   1.483       .  S
In235       O237   2.219       .  S
In235       O238   2.263       .  S
In235       O246   2.243       .  S
In235       O240   2.245       .  S
In235       O242   2.244       .  S
In235       O243   2.260       .  S
In235       O244   2.234       .  S
In235       O247   2.242       .  S
C236        O242   1.263       .  A
C236        O244   1.260       .  A
C236       C1346   1.471       .  S
O237        C245   1.260       .  A
O238        C245   1.266       .  A
C239        O246   1.262       .  A
C239        O240   1.262       .  A
C239       C1634   1.477       .  S
C241        O243   1.263       .  A
C241        O247   1.260       .  A
C241       C1506   1.492       .  S
C245       C1465   1.478       .  S
In248       O250   2.229       .  S
In248       O251   2.266       .  S
In248       O259   2.238       .  S
In248       O253   2.237       .  S
In248       O255   2.243       .  S
In248       O256   2.271       .  S
In248       O257   2.224       .  S
In248       O260   2.225       .  S
C249        O255   1.265       .  A
C249        O257   1.261       .  A
C249       C1337   1.477       .  S
O250        C258   1.259       .  A
O251        C258   1.267       .  A
C252        O259   1.262       .  A
C252        O253   1.263       .  A
C252       C2169   1.478       .  S
C254        O256   1.267       .  A
C254        O260   1.258       .  A
C254       C1410   1.491   1_554  S
C258       C1378   1.488       .  S
In261       O263   2.221       .  S
In261       O264   2.263       .  S
In261       O272   2.231       .  S
In261       O266   2.256       .  S
In261       O268   2.253       .  S
In261       O269   2.263       .  S
In261       O270   2.232       .  S
In261       O273   2.238       .  S
C262        O268   1.265       .  A
C262        O270   1.260       .  A
C262       C1305   1.484       .  S
O263        C271   1.260       .  A
O264        C271   1.266       .  A
C265        O272   1.262       .  A
C265        O266   1.264       .  A
C265       C1433   1.489       .  S
C267        O269   1.265       .  A
C267        O273   1.262       .  A
C267       C1273   1.496       .  S
C271       C1241   1.480       .  S
In274       O276   2.231       .  S
In274       O277   2.268       .  S
In274       O285   2.234       .  S
In274       O279   2.255       .  S
In274       O281   2.254       .  S
In274       O282   2.263       .  S
In274       O283   2.227       .  S
In274       O286   2.213       .  S
C275        O281   1.267       .  A
C275        O283   1.261       .  A
C275       C1314   1.480       .  S
O276        C284   1.261       .  A
O277        C284   1.267       .  A
C278        O285   1.262       .  A
C278        O279   1.267       .  A
C278       C2658   1.490       .  S
C280        O282   1.269       .  A
C280        O286   1.260       .  A
C280       C1218   1.489       .  S
C284       C1186   1.491   1_556  S
In287       O289   2.229       .  S
In287       O290   2.262       .  S
In287       O298   2.239       .  S
In287       O292   2.248       .  S
In287       O294   2.245       .  S
In287       O295   2.265       .  S
In287       O296   2.228       .  S
In287       O299   2.222       .  S
C288        O294   1.266       .  A
C288        O296   1.261       .  A
C288       C1145   1.475       .  S
O289        C297   1.262       .  A
O290        C297   1.266       .  A
C291        O298   1.262       .  A
C291        O292   1.264       .  A
C291       C2338   1.487       .  S
C293        O295   1.267       .  A
C293        O299   1.258       .  A
C293       C1209   1.490       .  S
C297       C1177   1.494       .  S
In300       O302   2.237       .  S
In300       O303   2.260       .  S
In300       O311   2.238       .  S
In300       O305   2.244       .  S
In300       O307   2.242       .  S
In300       O308   2.265       .  S
In300       O309   2.230       .  S
In300       O312   2.240       .  S
C301        O307   1.263       .  A
C301        O309   1.261       .  A
C301       C1154   1.473       .  S
O302        C310   1.260       .  A
O303        C310   1.264       .  A
C304        O311   1.261       .  A
C304        O305   1.262       .  A
C304       C1113   1.486       .  S
C306        O308   1.263       .  A
C306        O312   1.260       .  A
C306       C1282   1.495       .  S
C310       C1250   1.481       .  S
In313       O315   2.218       .  S
In313       O316   2.266       .  S
In313       O324   2.234       .  S
In313       O318   2.255       .  S
In313       O320   2.265       .  S
In313       O321   2.267       .  S
In313       O322   2.239       .  S
In313       O325   2.232       .  S
C314        O320   1.264       .  A
C314        O322   1.260       .  A
C314       C1081   1.485       .  S
O315        C323   1.259       .  A
O316        C323   1.266       .  A
C317        O324   1.263       .  A
C317        O318   1.265       .  A
C317       C2562   1.485       .  S
C319        O321   1.265       .  A
C319        O325   1.261       .  A
C319       C1058   1.495   1_554  S
C323       C1026   1.483       .  S
In326       O328   2.222       .  S
In326       O329   2.266       .  S
In326       O337   2.240       .  S
In326       O331   2.255       .  S
In326       O333   2.256       .  S
In326       O334   2.271       .  S
In326       O335   2.230       .  S
In326       O338   2.224       .  S
C327        O333   1.266       .  A
C327        O335   1.262       .  A
C327       C1090   1.480       .  S
O328        C336   1.260       .  A
O329        C336   1.268       .  A
C330        O337   1.262       .  A
C330        O331   1.264       .  A
C330        C921   1.482       .  S
C332        O334   1.266       .  A
C332        O338   1.261       .  A
C332        C985   1.493       .  S
C336        C953   1.493       .  S
In339       O341   2.228       .  S
In339       O342   2.263       .  S
In339       O350   2.247       .  S
In339       O344   2.231       .  S
In339       O346   2.234       .  S
In339       O347   2.273       .  S
In339       O348   2.232       .  S
In339       O351   2.220       .  S
C340        O346   1.262       .  A
C340        O348   1.262       .  A
C340        C889   1.475       .  S
O341        C349   1.260       .  A
O342        C349   1.264       .  A
C343        O350   1.263       .  A
C343        O344   1.260       .  A
C343       C1570   1.474       .  S
C345        O347   1.266       .  A
C345        O351   1.259       .  A
C345        C994   1.487       .  S
C349        C962   1.492       .  S
In352       O354   2.229       .  S
In352       O355   2.256       .  S
In352       O363   2.245       .  S
In352       O357   2.243       .  S
In352       O359   2.239       .  S
In352       O360   2.270       .  S
In352       O361   2.233       .  S
In352       O364   2.233       .  S
C353        O359   1.262       .  A
C353        O361   1.261       .  A
C353        C898   1.470       .  S
O354        C362   1.261       .  A
O355        C362   1.265       .  A
C356        O363   1.262       .  A
C356        O357   1.261       .  A
C356       C2242   1.481       .  S
C358        O360   1.264       .  A
C358        O364   1.259       .  A
C358       C1049   1.492       .  S
C362       C1017   1.483       .  S
In365       O367   2.211       .  S
In365       O368   2.250       .  S
In365       O376   2.216       .  S
In365       O370   2.254       .  S
In365       O372   2.245       .  S
In365       O373   2.251       .  S
In365       O374   2.231       .  S
In365       O377   2.218       .  S
C366        O372   1.265       .  A
C366        O374   1.262       .  A
C366        C857   1.485       .  S
O367        C375   1.260       .  A
O368        C375   1.266       .  A
C369        O376   1.260       .  A
C369        O370   1.265       .  A
C369       C2498   1.476       .  S
C371        O373   1.265       .  A
C371        O377   1.262       .  A
C371        C825   1.486       .  S
C375        C793   1.469       .  S
In378       O380   2.230       .  S
In378       O381   2.267       .  S
In378       O389   2.241       .  S
In378       O383   2.243       .  S
In378       O385   2.241       .  S
In378       O386   2.268       .  S
In378       O387   2.233       .  S
In378       O390   2.210       .  S
C379        O385   1.262       .  A
C379        O387   1.260       .  A
C379        C866   1.471       .  S
O380        C388   1.259       .  A
O381        C388   1.263       .  A
C382        O389   1.263       .  A
C382        O383   1.261       .  A
C382        C697   1.479       .  S
C384        O386   1.266       .  A
C384        O390   1.258       .  A
C384        C761   1.483       .  S
C388        C738   1.493       .  S
In391       O393   2.219       .  S
In391       O394   2.252       .  S
In391       O402   2.242       .  S
In391       O396   2.248       .  S
In391       O398   2.254       .  S
In391       O399   2.261       .  S
In391       O400   2.237       .  S
In391       O403   2.216       .  S
C392        O398   1.265       .  A
C392        O400   1.261       .  A
C392        C665   1.483       .  S
O393        C401   1.260       .  A
O394        C401   1.265       .  A
C395        O402   1.262       .  A
C395        O396   1.264       .  A
C395       C2018   1.483       .  S
C397        O399   1.265       .  A
C397        O403   1.260       .  A
C397        C834   1.477   1_554  S
C401        C802   1.475       .  S
In404       O406   2.227       .  S
In404       O407   2.257       .  S
In404       O415   2.223       .  S
In404       O409   2.247       .  S
In404       O411   2.252       .  S
In404       O412   2.256       .  S
In404       O413   2.226       .  S
In404       O416   2.210       .  S
C405        O411   1.267       .  A
C405        O413   1.262       .  A
C405        C674   1.478       .  S
O406        C414   1.261       .  A
O407        C414   1.268       .  A
C408        O415   1.263       .  A
C408        O409   1.267       .  A
C408       C1122   1.476       .  S
C410        O412   1.269       .  A
C410        O416   1.260       .  A
C410        C770   1.482       .  S
C414        C729   1.490       .  S
In417       O419   2.224       .  S
In417       O420   2.254       .  S
In417       O428   2.234       .  S
In417       O422   2.258       .  S
In417       O424   2.255       .  S
In417       O425   2.257       .  S
In417       O426   2.229       .  S
In417       O429   2.230       .  S
C418        O424   1.266       .  A
C418        O426   1.261       .  A
C418        C642   1.477       .  S
O419        C427   1.262       .  A
O420        C427   1.267       .  A
C421        O428   1.260       .  A
C421        O422   1.265       .  A
C421       C1858   1.476       .  S
C423        O425   1.264       .  A
C423        O429   1.261       .  A
C423        C601   1.489       .  S
C427        C578   1.481       .  S
In430       O432   2.239       .  S
In430       O433   2.268       .  S
In430       O441   2.241       .  S
In430       O435   2.262       .  S
In430       O437   2.258       .  S
In430       O438   2.272       .  S
In430       O439   2.239       .  S
In430       O442   2.235       .  S
C431        O437   1.265       .  A
C431        O439   1.262       .  A
C431        C633   1.483       .  S
O432        C440   1.261       .  A
O433        C440   1.266       .  A
C434        O441   1.262       .  A
C434        O435   1.265       .  A
C434        C930   1.487       .  S
C436        O438   1.267       .  A
C436        O442   1.259       .  A
C436        C537   1.495       .  S
C440        C505   1.487       .  S
In443       O445   2.222       .  S
In443       O446   2.268       .  S
In443       O454   2.237       .  S
In443       O448   2.231       .  S
In443       O450   2.232       .  S
In443       O451   2.259       .  S
In443       O452   2.234       .  S
In443       O455   2.224       .  S
C444        O450   1.262       .  A
C444        O452   1.261       .  A
C444        C473   1.472       .  S
O445        C453   1.259       .  A
O446        C453   1.265       .  A
C447        O454   1.262       .  A
C447        O448   1.261       .  A
C447       C2146   1.469       .  S
C449        O451   1.265       .  A
C449        O455   1.260       .  A
C449        C610   1.490       .  S
C453        C569   1.481   1_556  S
In456       O458   2.240       .  S
In456       O459   2.279       .  S
In456       O467   2.243       .  S
In456       O461   2.243       .  S
In456       O463   2.235       .  S
In456       O464   2.284       .  S
In456       O465   2.225       .  S
In456       O468   2.232       .  S
C457        O463   1.263       .  A
C457        O465   1.262       .  A
C457        C482   1.468       .  S
O458        C466   1.258       .  A
O459        C466   1.267       .  A
C460        O467   1.263       .  A
C460        O461   1.261       .  A
C460        C706   1.479       .  S
C462        O464   1.267       .  A
C462        O468   1.257       .  A
C462        C546   1.498       .  S
C466        C514   1.496       .  S
C469        C470   1.399       .  A
C469        C474   1.400       .  A
C469        H479   1.085       .  S
C470        C475   1.474       .  S
C470        C471   1.409       .  A
C471        C472   1.402       .  A
C471        C476   1.506       .  S
C472        C473   1.404       .  A
C472        H477   1.084       .  S
C473        C474   1.417       .  A
C474        C478   1.509       .  S
C475        C480   1.410       .  A
C475        C484   1.399       .  A
C476        H492   1.110       .  S
C476        H493   1.110       .  S
C476        H494   1.111       .  S
C478        H489   1.111       .  S
C478        H490   1.110       .  S
C478        H491   1.106       .  S
C480        C481   1.401       .  A
C480        C485   1.507       .  S
C481        C482   1.402       .  A
C481        H486   1.084       .  S
C482        C483   1.416       .  A
C483        C484   1.401       .  A
C483        C487   1.510       .  S
C484        H488   1.085       .  S
C485        H495   1.111       .  S
C485        H496   1.110       .  S
C485        H497   1.110       .  S
C487        H498   1.110       .  S
C487        H499   1.107       .  S
C487        H500   1.111       .  S
C501        C502   1.403       .  A
C501        C506   1.410       .  A
C501        H511   1.084       .  S
C502        C507   1.492       .  S
C502        C503   1.412       .  A
C503        C504   1.405       .  A
C503        C508   1.507       .  S
C504        C505   1.405       .  A
C504        H509   1.084       .  S
C505        C506   1.420       .  A
C506        C510   1.507       .  S
C507        C512   1.412   1_554  A
C507        C516   1.401       .  A
C508        H524   1.110       .  S
C508        H525   1.110       .  S
C508        H526   1.111       .  S
C510        H521   1.111       .  S
C510        H522   1.110       .  S
C510        H523   1.104       .  S
C512        C513   1.409       .  A
C512        C517   1.506       .  S
C513        C514   1.407       .  A
C513        H518   1.084       .  S
C514        C515   1.422       .  A
C515        C516   1.409   1_556  A
C515        C519   1.508       .  S
C516        H520   1.084       .  S
C517        H527   1.111       .  S
C517        H528   1.110   1_556  S
C517        H529   1.110   1_556  S
C519        H530   1.111       .  S
C519        H531   1.111       .  S
C519        H532   1.109       .  S
C533        C534   1.400       .  A
C533        C538   1.408       .  A
C533        H543   1.084       .  S
C534        C539   1.491       .  S
C534        C535   1.412       .  A
C535        C536   1.408       .  A
C535        C540   1.506       .  S
C536        C537   1.407       .  A
C536        H541   1.084       .  S
C537        C538   1.423       .  A
C538        C542   1.508       .  S
C539        C544   1.410       .  A
C539        C548   1.399       .  A
C540        H556   1.110       .  S
C540        H557   1.110       .  S
C540        H558   1.111       .  S
C542        H553   1.111       .  S
C542        H554   1.109       .  S
C542        H555   1.110       .  S
C544        C545   1.410       .  A
C544        C549   1.505       .  S
C545        C546   1.409       .  A
C545        H550   1.083       .  S
C546        C547   1.425       .  A
C547        C548   1.406       .  A
C547        C551   1.509       .  S
C548        H552   1.085       .  S
C549        H559   1.111       .  S
C549        H560   1.110       .  S
C549        H561   1.110       .  S
C551        H562   1.111       .  S
C551        H563   1.110       .  S
C551        H564   1.110       .  S
C565        C566   1.402       .  A
C565        C570   1.408       .  A
C565        H575   1.084       .  S
C566        C571   1.483       .  S
C566        C567   1.410       .  A
C567        C568   1.401       .  A
C567        C572   1.508       .  S
C568        C569   1.404       .  A
C568        H573   1.085       .  S
C569        C570   1.419       .  A
C570        C574   1.507       .  S
C571        C576   1.411       .  A
C571        C580   1.400       .  A
C572        H588   1.110       .  S
C572        H589   1.111       .  S
C572        H590   1.111       .  S
C574        H585   1.111       .  S
C574        H586   1.110       .  S
C574        H587   1.105   1_554  S
C576        C577   1.406       .  A
C576        C581   1.506       .  S
C577        C578   1.405       .  A
C577        H582   1.084       .  S
C578        C579   1.418       .  A
C579        C580   1.403       .  A
C579        C583   1.508       .  S
C580        H584   1.085       .  S
C581        H591   1.111       .  S
C581        H592   1.110       .  S
C581        H593   1.110       .  S
C583        H594   1.111       .  S
C583        H595   1.107       .  S
C583        H596   1.110       .  S
C597        C598   1.401       .  A
C597        C602   1.408       .  A
C597        H607   1.084       .  S
C598        C603   1.482       .  S
C598        C599   1.409       .  A
C599        C600   1.402       .  A
C599        C604   1.508       .  S
C600        C601   1.408       .  A
C600        H605   1.084       .  S
C601        C602   1.419       .  A
C602        C606   1.506       .  S
C603        C608   1.408       .  A
C603        C612   1.401       .  A
C604        H620   1.110       .  S
C604        H621   1.110       .  S
C604        H622   1.111       .  S
C606        H617   1.111       .  S
C606        H618   1.110       .  S
C606        H619   1.110       .  S
C608        C609   1.402       .  A
C608        C613   1.507       .  S
C609        C610   1.409       .  A
C609        H614   1.084       .  S
C610        C611   1.419       .  A
C611        C612   1.407       .  A
C611        C615   1.507       .  S
C612        H616   1.084       .  S
C613        H623   1.111       .  S
C613        H624   1.110       .  S
C613        H625   1.110       .  S
C615        H626   1.111       .  S
C615        H627   1.110       .  S
C615        H628   1.110       .  S
C629        C630   1.402       .  A
C629        C634   1.406       .  A
C629        H639   1.085       .  S
C630        C635   1.486       .  S
C630        C631   1.411       .  A
C631        C632   1.405       .  A
C631        C636   1.507       .  S
C632        C633   1.405       .  A
C632        H637   1.084       .  S
C633        C634   1.419       .  A
C634        C638   1.508       .  S
C635        C640   1.412       .  A
C635        C644   1.401       .  A
C636        H652   1.110       .  S
C636        H653   1.110       .  S
C636        H654   1.111       .  S
C638        H649   1.111       .  S
C638        H650   1.110       .  S
C638        H651   1.105       .  S
C640        C641   1.406       .  A
C640        C645   1.506       .  S
C641        C642   1.403       .  A
C641        H646   1.084       .  S
C642        C643   1.418       .  A
C643        C644   1.404       .  A
C643        C647   1.510       .  S
C644        H648   1.084       .  S
C645        H655   1.111       .  S
C645        H656   1.110       .  S
C645        H657   1.110       .  S
C647        H658   1.110       .  S
C647        H659   1.107       .  S
C647        H660   1.111       .  S
C661        C662   1.400       .  A
C661        C666   1.404       .  A
C661        H671   1.085       .  S
C662        C667   1.483       .  S
C662        C663   1.410       .  A
C663        C664   1.405       .  A
C663        C668   1.506       .  S
C664        C665   1.406       .  A
C664        H669   1.084       .  S
C665        C666   1.420       .  A
C666        C670   1.509       .  S
C667        C672   1.411       .  A
C667        C676   1.401       .  A
C668        H684   1.110       .  S
C668        H685   1.110       .  S
C668        H686   1.111       .  S
C670        H681   1.110       .  S
C670        H682   1.111       .  S
C670        H683   1.106       .  S
C672        C673   1.404       .  A
C672        C677   1.506       .  S
C673        C674   1.402       .  A
C673        H678   1.084       .  S
C674        C675   1.419       .  A
C675        C676   1.405       .  A
C675        C679   1.510       .  S
C676        H680   1.085       .  S
C677        H687   1.111       .  S
C677        H688   1.110       .  S
C677        H689   1.110       .  S
C679        H690   1.111       .  S
C679        H691   1.107       .  S
C679        H692   1.110       .  S
C693        C694   1.400   1_655  A
C693        C698   1.405       .  A
C693        H703   1.085   1_655  S
C694        C699   1.480       .  S
C694        C695   1.409       .  A
C695        C696   1.402   1_455  A
C695        C700   1.506       .  S
C696        C697   1.404       .  A
C696        H701   1.084       .  S
C697        C698   1.421       .  A
C698        C702   1.509       .  S
C699        C704   1.409       .  A
C699        C708   1.400       .  A
C700        H716   1.110       .  S
C700        H717   1.110       .  S
C700        H718   1.111       .  S
C702        H713   1.110       .  S
C702        H714   1.111       .  S
C702        H715   1.104       .  S
C704        C705   1.406       .  A
C704        C709   1.506       .  S
C705        C706   1.407       .  A
C705        H710   1.084       .  S
C706        C707   1.417       .  A
C707        C708   1.401       .  A
C707        C711   1.508       .  S
C708        H712   1.085       .  S
C709        H719   1.111       .  S
C709        H720   1.110       .  S
C709        H721   1.110       .  S
C711        H722   1.111       .  S
C711        H723   1.106       .  S
C711        H724   1.110       .  S
C725        C726   1.400       .  A
C725        C730   1.406       .  A
C725        H735   1.084       .  S
C726        C731   1.485       .  S
C726        C727   1.409       .  A
C727        C728   1.406       .  A
C727        C732   1.506       .  S
C728        C729   1.407       .  A
C728        H733   1.084       .  S
C729        C730   1.421       .  A
C730        C734   1.508       .  S
C731        C736   1.408       .  A
C731        C740   1.402       .  A
C732        H748   1.110       .  S
C732        H749   1.110       .  S
C732        H750   1.111       .  S
C734        H745   1.111       .  S
C734        H746   1.111       .  S
C734        H747   1.109       .  S
C736        C737   1.401       .  A
C736        C741   1.507       .  S
C737        C738   1.409       .  A
C737        H742   1.083       .  S
C738        C739   1.421       .  A
C739        C740   1.410       .  A
C739        C743   1.507       .  S
C740        H744   1.084       .  S
C741        H751   1.111       .  S
C741        H752   1.110       .  S
C741        H753   1.110       .  S
C743        H754   1.110       .  S
C743        H755   1.110       .  S
C743        H756   1.111       .  S
C757        C758   1.398       .  A
C757        C762   1.400       .  A
C757        H767   1.085       .  S
C758        C763   1.481       .  S
C758        C759   1.410       .  A
C759        C760   1.408       .  A
C759        C764   1.505       .  S
C760        C761   1.407       .  A
C760        H765   1.084       .  S
C761        C762   1.419       .  A
C762        C766   1.510       .  S
C763        C768   1.411       .  A
C763        C772   1.399       .  A
C764        H780   1.110       .  S
C764        H781   1.110       .  S
C764        H782   1.111       .  S
C766        H777   1.109       .  S
C766        H778   1.111       .  S
C766        H779   1.111       .  S
C768        C769   1.403   1_556  A
C768        C773   1.507       .  S
C769        C770   1.404       .  A
C769        H774   1.084       .  S
C770        C771   1.420       .  A
C771        C772   1.404   1_554  A
C771        C775   1.509       .  S
C772        H776   1.084       .  S
C773        H783   1.111   1_556  S
C773        H784   1.110       .  S
C773        H785   1.110       .  S
C775        H786   1.111   1_554  S
C775        H787   1.109       .  S
C775        H788   1.111       .  S
C789        C790   1.400       .  A
C789        C794   1.399       .  A
C789        H799   1.085       .  S
C790        C795   1.477       .  S
C790        C791   1.410       .  A
C791        C792   1.405       .  A
C791        C796   1.505       .  S
C792        C793   1.403       .  A
C792        H797   1.084       .  S
C793        C794   1.415       .  A
C794        C798   1.509       .  S
C795        C800   1.408       .  A
C795        C804   1.401       .  A
C796        H812   1.110       .  S
C796        H813   1.110       .  S
C796        H814   1.111       .  S
C798        H809   1.111       .  S
C798        H810   1.110       .  S
C798        H811   1.108       .  S
C800        C801   1.401       .  A
C800        C805   1.507       .  S
C801        C802   1.405       .  A
C801        H806   1.085       .  S
C802        C803   1.418       .  A
C803        C804   1.404       .  A
C803        C807   1.509       .  S
C804        H808   1.085       .  S
C805        H815   1.111       .  S
C805        H816   1.110       .  S
C805        H817   1.110       .  S
C807        H818   1.111       .  S
C807        H819   1.105       .  S
C807        H820   1.110       .  S
C821        C822   1.401       .  A
C821        C826   1.406       .  A
C821        H831   1.084       .  S
C822        C827   1.478       .  S
C822        C823   1.407       .  A
C823        C824   1.400       .  A
C823        C828   1.507       .  S
C824        C825   1.408       .  A
C824        H829   1.084       .  S
C825        C826   1.419       .  A
C826        C830   1.507       .  S
C827        C832   1.409       .  A
C827        C836   1.401       .  A
C828        H844   1.110       .  S
C828        H845   1.110       .  S
C828        H846   1.111       .  S
C830        H841   1.110       .  S
C830        H842   1.111       .  S
C830        H843   1.110       .  S
C832        C833   1.398       .  A
C832        C837   1.509       .  S
C833        C834   1.404       .  A
C833        H838   1.085       .  S
C834        C835   1.419       .  A
C835        C836   1.407       .  A
C835        C839   1.507   1_556  S
C836        H840   1.084       .  S
C837        H847   1.111       .  S
C837        H848   1.110       .  S
C837        H849   1.109       .  S
C839        H850   1.111   1_554  S
C839        H851   1.105       .  S
C839        H852   1.110       .  S
C853        C854   1.400       .  A
C853        C858   1.404       .  A
C853        H863   1.084       .  S
C854        C859   1.479       .  S
C854        C855   1.408       .  A
C855        C856   1.403       .  A
C855        C860   1.506       .  S
C856        C857   1.408       .  A
C856        H861   1.084       .  S
C857        C858   1.418       .  A
C858        C862   1.507       .  S
C859        C864   1.410       .  A
C859        C868   1.400       .  A
C860        H876   1.110       .  S
C860        H877   1.110       .  S
C860        H878   1.111       .  S
C862        H873   1.109       .  S
C862        H874   1.111       .  S
C862        H875   1.111       .  S
C864        C865   1.402       .  A
C864        C869   1.506       .  S
C865        C866   1.403       .  A
C865        H870   1.084       .  S
C866        C867   1.416       .  A
C867        C868   1.403       .  A
C867        C871   1.509       .  S
C868        H872   1.084       .  S
C869        H879   1.111       .  S
C869        H880   1.110       .  S
C869        H881   1.110       .  S
C871        H882   1.111       .  S
C871        H883   1.106       .  S
C871        H884   1.110       .  S
C885        C886   1.399       .  A
C885        C890   1.402       .  A
C885        H895   1.085       .  S
C886        C891   1.474       .  S
C886        C887   1.408       .  A
C887        C888   1.400       .  A
C887        C892   1.507       .  S
C888        C889   1.405       .  A
C888        H893   1.084       .  S
C889        C890   1.419       .  A
C890        C894   1.509       .  S
C891        C896   1.409       .  A
C891        C900   1.400       .  A
C892        H908   1.110       .  S
C892        H909   1.110       .  S
C892        H910   1.111       .  S
C894        H905   1.111       .  S
C894        H906   1.110       .  S
C894        H907   1.105       .  S
C896        C897   1.402       .  A
C896        C901   1.506       .  S
C897        C898   1.404       .  A
C897        H902   1.084       .  S
C898        C899   1.415       .  A
C899        C900   1.400       .  A
C899        C903   1.508       .  S
C900        H904   1.085       .  S
C901        H911   1.111       .  S
C901        H912   1.110       .  S
C901        H913   1.109       .  S
C903        H914   1.110       .  S
C903        H915   1.107       .  S
C903        H916   1.111       .  S
C917        C918   1.402       .  A
C917        C922   1.406       .  A
C917        H927   1.084       .  S
C918        C923   1.488       .  S
C918        C919   1.411       .  A
C919        C920   1.405       .  A
C919        C924   1.506       .  S
C920        C921   1.405       .  A
C920        H925   1.084       .  S
C921        C922   1.418       .  A
C922        C926   1.508       .  S
C923        C928   1.411       .  A
C923        C932   1.401       .  A
C924        H940   1.110       .  S
C924        H941   1.110       .  S
C924        H942   1.111       .  S
C926        H937   1.110       .  S
C926        H938   1.111       .  S
C926        H939   1.105       .  S
C928        C929   1.408       .  A
C928        C933   1.506       .  S
C929        C930   1.406       .  A
C929        H934   1.084       .  S
C930        C931   1.420       .  A
C931        C932   1.405       .  A
C931        C935   1.508       .  S
C932        H936   1.085       .  S
C933        H943   1.111       .  S
C933        H944   1.110       .  S
C933        H945   1.110       .  S
C935        H946   1.111       .  S
C935        H947   1.104       .  S
C935        H948   1.110       .  S
C949        C950   1.398       .  A
C949        C954   1.403       .  A
C949        H959   1.085       .  S
C950        C955   1.483       .  S
C950        C951   1.409       .  A
C951        C952   1.408       .  A
C951        C956   1.506       .  S
C952        C953   1.409       .  A
C952        H957   1.084       .  S
C953        C954   1.424       .  A
C954        C958   1.509       .  S
C955        C960   1.408       .  A
C955        C964   1.402       .  A
C956        H972   1.110       .  S
C956        H973   1.109       .  S
C956        H974   1.111       .  S
C958        H969   1.110       .  S
C958        H970   1.111       .  S
C958        H971   1.110       .  S
C960        C961   1.402       .  A
C960        C965   1.508       .  S
C961        C962   1.409       .  A
C961        H966   1.084       .  S
C962        C963   1.420       .  A
C963        C964   1.408       .  A
C963        C967   1.507       .  S
C964        H968   1.084       .  S
C965        H975   1.111       .  S
C965        H976   1.110       .  S
C965        H977   1.109       .  S
C967        H978   1.110       .  S
C967        H979   1.110       .  S
C967        H980   1.111       .  S
C981        C982   1.404   1_554  A
C981        C986   1.411       .  A
C981        H991   1.084       .  S
C982        C987   1.488       .  S
C982        C983   1.410       .  A
C983        C984   1.402   1_556  A
C983        C988   1.508       .  S
C984        C985   1.408       .  A
C984        H989   1.084       .  S
C985        C986   1.419       .  A
C986        C990   1.506       .  S
C987        C992   1.409       .  A
C987        C996   1.404       .  A
C988       H1004   1.109       .  S
C988       H1005   1.110       .  S
C988       H1006   1.111       .  S
C990       H1001   1.110       .  S
C990       H1002   1.111       .  S
C990       H1003   1.110       .  S
C992        C993   1.402       .  A
C992        C997   1.507       .  S
C993        C994   1.407       .  A
C993        H998   1.084       .  S
C994        C995   1.421       .  A
C995        C996   1.409       .  A
C995        C999   1.508       .  S
C996       H1000   1.085       .  S
C997       H1007   1.111       .  S
C997       H1008   1.110       .  S
C997       H1009   1.110       .  S
C999       H1010   1.110       .  S
C999       H1011   1.103       .  S
C999       H1012   1.111       .  S
C1013      C1014   1.400       .  A
C1013      C1018   1.407       .  A
C1013      H1023   1.084       .  S
C1014      C1019   1.482       .  S
C1014      C1015   1.410       .  A
C1015      C1016   1.402       .  A
C1015      C1020   1.508       .  S
C1016      C1017   1.406       .  A
C1016      H1021   1.084       .  S
C1017      C1018   1.421       .  A
C1018      C1022   1.508       .  S
C1019      C1024   1.411       .  A
C1019      C1028   1.399       .  A
C1020      H1036   1.110       .  S
C1020      H1037   1.109       .  S
C1020      H1038   1.111       .  S
C1022      H1033   1.111       .  S
C1022      H1034   1.110       .  S
C1022      H1035   1.103       .  S
C1024      C1025   1.405       .  A
C1024      C1029   1.507       .  S
C1025      C1026   1.405       .  A
C1025      H1030   1.084       .  S
C1026      C1027   1.419       .  A
C1027      C1028   1.404       .  A
C1027      C1031   1.508       .  S
C1028      H1032   1.084       .  S
C1029      H1039   1.111       .  S
C1029      H1040   1.110       .  S
C1029      H1041   1.109       .  S
C1031      H1042   1.111       .  S
C1031      H1043   1.109       .  S
C1031      H1044   1.111       .  S
C1045      C1046   1.404       .  A
C1045      C1050   1.411       .  A
C1045      H1055   1.084       .  S
C1046      C1051   1.488       .  S
C1046      C1047   1.409       .  A
C1047      C1048   1.402       .  A
C1047      C1052   1.508       .  S
C1048      C1049   1.408       .  A
C1048      H1053   1.084       .  S
C1049      C1050   1.419       .  A
C1050      C1054   1.506       .  S
C1051      C1056   1.409       .  A
C1051      C1060   1.403       .  A
C1052      H1068   1.110       .  S
C1052      H1069   1.111       .  S
C1052      H1070   1.111       .  S
C1054      H1065   1.110       .  S
C1054      H1066   1.111       .  S
C1054      H1067   1.110       .  S
C1056      C1057   1.403       .  A
C1056      C1061   1.507       .  S
C1057      C1058   1.409       .  A
C1057      H1062   1.083       .  S
C1058      C1059   1.420       .  A
C1059      C1060   1.410       .  A
C1059      C1063   1.506   1_556  S
C1060      H1064   1.084       .  S
C1061      H1071   1.111       .  S
C1061      H1072   1.110       .  S
C1061      H1073   1.110       .  S
C1063      H1074   1.111   1_554  S
C1063      H1075   1.110       .  S
C1063      H1076   1.110       .  S
C1077      C1078   1.402       .  A
C1077      C1082   1.407       .  A
C1077      H1087   1.085       .  S
C1078      C1083   1.485       .  S
C1078      C1079   1.409       .  A
C1079      C1080   1.404       .  A
C1079      C1084   1.507       .  S
C1080      C1081   1.407       .  A
C1080      H1085   1.084       .  S
C1081      C1082   1.419       .  A
C1082      C1086   1.508       .  S
C1083      C1088   1.412       .  A
C1083      C1092   1.401       .  A
C1084      H1100   1.110       .  S
C1084      H1101   1.110       .  S
C1084      H1102   1.111       .  S
C1086      H1097   1.111       .  S
C1086      H1098   1.110       .  S
C1086      H1099   1.105       .  S
C1088      C1089   1.406       .  A
C1088      C1093   1.506       .  S
C1089      C1090   1.404       .  A
C1089      H1094   1.084       .  S
C1090      C1091   1.418       .  A
C1091      C1092   1.404       .  A
C1091      C1095   1.509       .  S
C1092      H1096   1.084       .  S
C1093      H1103   1.111       .  S
C1093      H1104   1.110       .  S
C1093      H1105   1.110       .  S
C1095      H1106   1.110       .  S
C1095      H1107   1.107       .  S
C1095      H1108   1.111       .  S
C1109      C1110   1.400   1_565  A
C1109      C1114   1.404       .  A
C1109      H1119   1.084   1_565  S
C1110      C1115   1.482       .  S
C1110      C1111   1.409   1_545  A
C1111      C1112   1.404       .  A
C1111      C1116   1.506   1_565  S
C1112      C1113   1.407       .  A
C1112      H1117   1.084       .  S
C1113      C1114   1.419       .  A
C1114      C1118   1.508       .  S
C1115      C1120   1.410       .  A
C1115      C1124   1.402       .  A
C1116      H1132   1.110       .  S
C1116      H1133   1.110       .  S
C1116      H1134   1.111   1_545  S
C1118      H1129   1.110       .  S
C1118      H1130   1.111       .  S
C1118      H1131   1.110       .  S
C1120      C1121   1.402       .  A
C1120      C1125   1.507       .  S
C1121      C1122   1.404       .  A
C1121      H1126   1.084       .  S
C1122      C1123   1.417       .  A
C1123      C1124   1.405       .  A
C1123      C1127   1.508       .  S
C1124      H1128   1.085       .  S
C1125      H1135   1.111       .  S
C1125      H1136   1.110       .  S
C1125      H1137   1.110       .  S
C1127      H1138   1.111       .  S
C1127      H1139   1.106       .  S
C1127      H1140   1.110       .  S
C1141      C1142   1.400       .  A
C1141      C1146   1.402       .  A
C1141      H1151   1.085       .  S
C1142      C1147   1.477       .  S
C1142      C1143   1.409       .  A
C1143      C1144   1.402       .  A
C1143      C1148   1.507       .  S
C1144      C1145   1.405       .  A
C1144      H1149   1.084       .  S
C1145      C1146   1.416       .  A
C1146      C1150   1.508       .  S
C1147      C1152   1.410       .  A
C1147      C1156   1.399       .  A
C1148      H1164   1.110       .  S
C1148      H1165   1.110       .  S
C1148      H1166   1.111       .  S
C1150      H1161   1.111       .  S
C1150      H1162   1.110       .  S
C1150      H1163   1.106       .  S
C1152      C1153   1.402       .  A
C1152      C1157   1.507       .  S
C1153      C1154   1.404       .  A
C1153      H1158   1.084       .  S
C1154      C1155   1.417       .  A
C1155      C1156   1.402       .  A
C1155      C1159   1.509       .  S
C1156      H1160   1.085       .  S
C1157      H1167   1.111       .  S
C1157      H1168   1.110       .  S
C1157      H1169   1.110       .  S
C1159      H1170   1.110       .  S
C1159      H1171   1.106       .  S
C1159      H1172   1.111       .  S
C1173      C1174   1.402       .  A
C1173      C1178   1.409       .  A
C1173      H1183   1.084       .  S
C1174      C1179   1.487       .  S
C1174      C1175   1.409       .  A
C1175      C1176   1.404       .  A
C1175      C1180   1.507       .  S
C1176      C1177   1.409       .  A
C1176      H1181   1.083       .  S
C1177      C1178   1.420       .  A
C1178      C1182   1.506       .  S
C1179      C1184   1.410       .  A
C1179      C1188   1.400       .  A
C1180      H1196   1.110       .  S
C1180      H1197   1.110       .  S
C1180      H1198   1.111       .  S
C1182      H1193   1.111       .  S
C1182      H1194   1.110       .  S
C1182      H1195   1.110       .  S
C1184      C1185   1.409       .  A
C1184      C1189   1.505       .  S
C1185      C1186   1.408       .  A
C1185      H1190   1.084       .  S
C1186      C1187   1.420       .  A
C1187      C1188   1.405       .  A
C1187      C1191   1.508       .  S
C1188      H1192   1.084       .  S
C1189      H1199   1.111       .  S
C1189      H1200   1.110       .  S
C1189      H1201   1.110       .  S
C1191      H1202   1.110       .  S
C1191      H1203   1.111       .  S
C1191      H1204   1.111       .  S
C1205      C1206   1.399       .  A
C1205      C1210   1.404       .  A
C1205      H1215   1.084       .  S
C1206      C1211   1.483       .  S
C1206      C1207   1.409       .  A
C1207      C1208   1.406       .  A
C1207      C1212   1.505       .  S
C1208      C1209   1.407       .  A
C1208      H1213   1.084       .  S
C1209      C1210   1.423       .  A
C1210      C1214   1.509       .  S
C1211      C1216   1.410       .  A
C1211      C1220   1.398       .  A
C1212      H1228   1.110       .  S
C1212      H1229   1.110       .  S
C1212      H1230   1.111       .  S
C1214      H1225   1.111       .  S
C1214      H1226   1.111       .  S
C1214      H1227   1.110       .  S
C1216      C1217   1.407       .  A
C1216      C1221   1.506       .  S
C1217      C1218   1.407       .  A
C1217      H1222   1.083       .  S
C1218      C1219   1.422       .  A
C1219      C1220   1.404       .  A
C1219      C1223   1.509       .  S
C1220      H1224   1.085       .  S
C1221      H1231   1.111       .  S
C1221      H1232   1.110       .  S
C1221      H1233   1.110       .  S
C1223      H1234   1.111       .  S
C1223      H1235   1.110       .  S
C1223      H1236   1.110       .  S
C1237      C1238   1.400   1_556  A
C1237      C1242   1.403       .  A
C1237      H1247   1.084   1_556  S
C1238      C1243   1.483       .  S
C1238      C1239   1.412   1_554  A
C1239      C1240   1.405       .  A
C1239      C1244   1.506       .  S
C1240      C1241   1.404       .  A
C1240      H1245   1.084       .  S
C1241      C1242   1.418       .  A
C1242      C1246   1.508       .  S
C1243      C1248   1.410       .  A
C1243      C1252   1.401       .  A
C1244      H1260   1.110       .  S
C1244      H1261   1.110   1_556  S
C1244      H1262   1.111       .  S
C1246      H1257   1.110       .  S
C1246      H1258   1.111       .  S
C1246      H1259   1.108       .  S
C1248      C1249   1.403       .  A
C1248      C1253   1.507       .  S
C1249      C1250   1.405       .  A
C1249      H1254   1.084       .  S
C1250      C1251   1.419       .  A
C1251      C1252   1.407       .  A
C1251      C1255   1.508       .  S
C1252      H1256   1.085       .  S
C1253      H1263   1.111       .  S
C1253      H1264   1.110       .  S
C1253      H1265   1.110       .  S
C1255      H1266   1.110       .  S
C1255      H1267   1.105       .  S
C1255      H1268   1.111       .  S
C1269      C1270   1.403       .  A
C1269      C1274   1.411       .  A
C1269      H1279   1.083       .  S
C1270      C1275   1.488       .  S
C1270      C1271   1.409       .  A
C1271      C1272   1.403       .  A
C1271      C1276   1.508       .  S
C1272      C1273   1.408       .  A
C1272      H1277   1.084       .  S
C1273      C1274   1.422       .  A
C1274      C1278   1.506       .  S
C1275      C1280   1.409       .  A
C1275      C1284   1.402       .  A
C1276      H1292   1.110       .  S
C1276      H1293   1.110       .  S
C1276      H1294   1.111       .  S
C1278      H1289   1.110       .  S
C1278      H1290   1.111       .  S
C1278      H1291   1.110       .  S
C1280      C1281   1.404       .  A
C1280      C1285   1.507       .  S
C1281      C1282   1.409       .  A
C1281      H1286   1.083       .  S
C1282      C1283   1.421       .  A
C1283      C1284   1.410       .  A
C1283      C1287   1.507       .  S
C1284      H1288   1.084       .  S
C1285      H1295   1.111       .  S
C1285      H1296   1.110       .  S
C1285      H1297   1.110       .  S
C1287      H1298   1.111       .  S
C1287      H1299   1.110       .  S
C1287      H1300   1.110       .  S
C1301      C1302   1.400       .  A
C1301      C1306   1.404       .  A
C1301      H1311   1.084       .  S
C1302      C1307   1.483       .  S
C1302      C1303   1.410       .  A
C1303      C1304   1.405       .  A
C1303      C1308   1.506       .  S
C1304      C1305   1.406       .  A
C1304      H1309   1.084       .  S
C1305      C1306   1.418       .  A
C1306      C1310   1.508       .  S
C1307      C1312   1.411       .  A
C1307      C1316   1.399       .  A
C1308      H1324   1.110       .  S
C1308      H1325   1.110       .  S
C1308      H1326   1.111       .  S
C1310      H1321   1.109       .  S
C1310      H1322   1.111       .  S
C1310      H1323   1.111       .  S
C1312      C1313   1.406       .  A
C1312      C1317   1.506       .  S
C1313      C1314   1.404       .  A
C1313      H1318   1.084       .  S
C1314      C1315   1.421       .  A
C1315      C1316   1.403       .  A
C1315      C1319   1.510       .  S
C1316      H1320   1.085       .  S
C1317      H1327   1.111       .  S
C1317      H1328   1.110       .  S
C1317      H1329   1.110       .  S
C1319      H1330   1.111       .  S
C1319      H1331   1.105       .  S
C1319      H1332   1.110       .  S
C1333      C1334   1.400       .  A
C1333      C1338   1.403       .  A
C1333      H1343   1.084       .  S
C1334      C1339   1.478       .  S
C1334      C1335   1.410       .  A
C1335      C1336   1.402       .  A
C1335      C1340   1.506       .  S
C1336      C1337   1.404       .  A
C1336      H1341   1.084       .  S
C1337      C1338   1.417       .  A
C1338      C1342   1.508       .  S
C1339      C1344   1.410       .  A
C1339      C1348   1.401       .  A
C1340      H1356   1.110       .  S
C1340      H1357   1.110       .  S
C1340      H1358   1.111       .  S
C1342      H1353   1.111       .  S
C1342      H1354   1.109       .  S
C1342      H1355   1.111       .  S
C1344      C1345   1.402       .  A
C1344      C1349   1.506       .  S
C1345      C1346   1.403       .  A
C1345      H1350   1.084       .  S
C1346      C1347   1.416       .  A
C1347      C1348   1.402       .  A
C1347      C1351   1.508       .  S
C1348      H1352   1.085       .  S
C1349      H1359   1.111       .  S
C1349      H1360   1.110       .  S
C1349      H1361   1.110       .  S
C1351      H1362   1.110       .  S
C1351      H1363   1.107       .  S
C1351      H1364   1.111       .  S
C1365      C1366   1.401       .  A
C1365      C1370   1.407       .  A
C1365      H1375   1.084       .  S
C1366      C1371   1.486       .  S
C1366      C1367   1.411       .  A
C1367      C1368   1.405       .  A
C1367      C1372   1.507       .  S
C1368      C1369   1.405       .  A
C1368      H1373   1.084       .  S
C1369      C1370   1.419       .  A
C1370      C1374   1.507       .  S
C1371      C1376   1.411       .  A
C1371      C1380   1.400       .  A
C1372      H1388   1.110       .  S
C1372      H1389   1.110       .  S
C1372      H1390   1.111       .  S
C1374      H1385   1.111       .  S
C1374      H1386   1.110       .  S
C1374      H1387   1.104       .  S
C1376      C1377   1.406       .  A
C1376      C1381   1.506       .  S
C1377      C1378   1.406       .  A
C1377      H1382   1.084       .  S
C1378      C1379   1.420       .  A
C1379      C1380   1.406       .  A
C1379      C1383   1.508       .  S
C1380      H1384   1.084       .  S
C1381      H1391   1.111       .  S
C1381      H1392   1.110       .  S
C1381      H1393   1.110       .  S
C1383      H1394   1.111       .  S
C1383      H1395   1.111       .  S
C1383      H1396   1.109       .  S
C1397      C1398   1.401       .  A
C1397      C1402   1.407       .  A
C1397      H1407   1.084       .  S
C1398      C1403   1.487       .  S
C1398      C1399   1.412       .  A
C1399      C1400   1.406       .  A
C1399      C1404   1.506       .  S
C1400      C1401   1.405       .  A
C1400      H1405   1.084       .  S
C1401      C1402   1.419       .  A
C1402      C1406   1.508       .  S
C1403      C1408   1.410       .  A
C1403      C1412   1.399       .  A
C1404      H1420   1.110       .  S
C1404      H1421   1.110       .  S
C1404      H1422   1.111       .  S
C1406      H1417   1.111       .  S
C1406      H1418   1.109       .  S
C1406      H1419   1.111       .  S
C1408      C1409   1.408       .  A
C1408      C1413   1.505       .  S
C1409      C1410   1.407       .  A
C1409      H1414   1.083       .  S
C1410      C1411   1.422       .  A
C1411      C1412   1.404       .  A
C1411      C1415   1.509       .  S
C1412      H1416   1.084       .  S
C1413      H1423   1.111       .  S
C1413      H1424   1.110       .  S
C1413      H1425   1.110       .  S
C1415      H1426   1.111       .  S
C1415      H1427   1.110   1_556  S
C1415      H1428   1.110       .  S
C1429      C1430   1.402       .  A
C1429      C1434   1.409       .  A
C1429      H1439   1.084       .  S
C1430      C1435   1.487       .  S
C1430      C1431   1.411       .  A
C1431      C1432   1.402       .  A
C1431      C1436   1.508       .  S
C1432      C1433   1.406       .  A
C1432      H1437   1.084       .  S
C1433      C1434   1.419       .  A
C1434      C1438   1.506       .  S
C1435      C1440   1.412       .  A
C1435      C1444   1.401       .  A
C1436      H1452   1.109       .  S
C1436      H1453   1.110       .  S
C1436      H1454   1.111       .  S
C1438      H1449   1.110       .  S
C1438      H1450   1.111       .  S
C1438      H1451   1.110       .  S
C1440      C1441   1.407       .  A
C1440      C1445   1.506       .  S
C1441      C1442   1.406       .  A
C1441      H1446   1.084       .  S
C1442      C1443   1.417       .  A
C1443      C1444   1.403       .  A
C1443      C1447   1.508       .  S
C1444      H1448   1.085       .  S
C1445      H1455   1.111       .  S
C1445      H1456   1.109       .  S
C1445      H1457   1.110       .  S
C1447      H1458   1.111       .  S
C1447      H1459   1.110       .  S
C1447      H1460   1.109       .  S
C1461      C1462   1.400       .  A
C1461      C1466   1.400       .  A
C1461      H1471   1.085       .  S
C1462      C1467   1.483       .  S
C1462      C1463   1.411       .  A
C1463      C1464   1.408       .  A
C1463      C1468   1.505       .  S
C1464      C1465   1.405       .  A
C1464      H1469   1.084       .  S
C1465      C1466   1.417       .  A
C1466      C1470   1.509       .  S
C1467      C1472   1.409       .  A
C1467      C1476   1.401       .  A
C1468      H1484   1.110       .  S
C1468      H1485   1.110       .  S
C1468      H1486   1.111       .  S
C1470      H1481   1.111       .  S
C1470      H1482   1.110       .  S
C1470      H1483   1.107       .  S
C1472      C1473   1.404       .  A
C1472      C1477   1.507       .  S
C1473      C1474   1.406       .  A
C1473      H1478   1.084       .  S
C1474      C1475   1.420       .  A
C1475      C1476   1.406       .  A
C1475      C1479   1.508       .  S
C1476      H1480   1.085       .  S
C1477      H1487   1.111       .  S
C1477      H1488   1.110       .  S
C1477      H1489   1.109       .  S
C1479      H1490   1.111       .  S
C1479      H1491   1.104       .  S
C1479      H1492   1.110       .  S
C1493      C1494   1.402       .  A
C1493      C1498   1.410       .  A
C1493      H1503   1.084       .  S
C1494      C1499   1.485       .  S
C1494      C1495   1.410       .  A
C1495      C1496   1.401       .  A
C1495      C1500   1.508       .  S
C1496      C1497   1.406       .  A
C1496      H1501   1.084       .  S
C1497      C1498   1.419       .  A
C1498      C1502   1.506       .  S
C1499      C1504   1.409       .  A
C1499      C1508   1.401   1_556  A
C1500      H1516   1.110       .  S
C1500      H1517   1.110       .  S
C1500      H1518   1.111       .  S
C1502      H1513   1.110       .  S
C1502      H1514   1.111       .  S
C1502      H1515   1.110       .  S
C1504      C1505   1.405   1_556  A
C1504      C1509   1.506       .  S
C1505      C1506   1.409       .  A
C1505      H1510   1.084       .  S
C1506      C1507   1.420       .  A
C1507      C1508   1.407       .  A
C1507      C1511   1.507       .  S
C1508      H1512   1.084       .  S
C1509      H1519   1.111       .  S
C1509      H1520   1.110       .  S
C1509      H1521   1.110       .  S
C1511      H1522   1.111       .  S
C1511      H1523   1.110       .  S
C1511      H1524   1.110       .  S
C1525      C1526   1.399       .  A
C1525      C1530   1.403       .  A
C1525      H1535   1.084       .  S
C1526      C1531   1.480       .  S
C1526      C1527   1.411       .  A
C1527      C1528   1.406       .  A
C1527      C1532   1.506       .  S
C1528      C1529   1.404       .  A
C1528      H1533   1.084       .  S
C1529      C1530   1.418       .  A
C1530      C1534   1.508       .  S
C1531      C1536   1.410       .  A
C1531      C1540   1.400       .  A
C1532      H1548   1.110       .  S
C1532      H1549   1.110       .  S
C1532      H1550   1.111       .  S
C1534      H1545   1.111       .  S
C1534      H1546   1.109       .  S
C1534      H1547   1.111       .  S
C1536      C1537   1.404       .  A
C1536      C1541   1.506       .  S
C1537      C1538   1.405       .  A
C1537      H1542   1.084       .  S
C1538      C1539   1.417       .  A
C1539      C1540   1.402       .  A
C1539      C1543   1.508       .  S
C1540      H1544   1.085       .  S
C1541      H1551   1.111       .  S
C1541      H1552   1.110       .  S
C1541      H1553   1.110       .  S
C1543      H1554   1.110       .  S
C1543      H1555   1.105       .  S
C1543      H1556   1.111       .  S
C1557      C1558   1.398   1_565  A
C1557      C1562   1.401       .  A
C1557      H1567   1.084   1_565  S
C1558      C1563   1.476       .  S
C1558      C1559   1.408   1_545  A
C1559      C1560   1.403       .  A
C1559      C1564   1.506   1_565  S
C1560      C1561   1.406       .  A
C1560      H1565   1.084       .  S
C1561      C1562   1.418       .  A
C1562      C1566   1.508       .  S
C1563      C1568   1.410       .  A
C1563      C1572   1.397       .  A
C1564      H1580   1.110       .  S
C1564      H1581   1.110       .  S
C1564      H1582   1.111   1_545  S
C1566      H1577   1.109       .  S
C1566      H1578   1.111       .  S
C1566      H1579   1.111       .  S
C1568      C1569   1.403       .  A
C1568      C1573   1.507       .  S
C1569      C1570   1.404       .  A
C1569      H1574   1.084       .  S
C1570      C1571   1.419       .  A
C1571      C1572   1.401       .  A
C1571      C1575   1.509       .  S
C1572      H1576   1.085       .  S
C1573      H1583   1.111       .  S
C1573      H1584   1.110       .  S
C1573      H1585   1.110       .  S
C1575      H1586   1.111       .  S
C1575      H1587   1.105       .  S
C1575      H1588   1.110       .  S
C1589      C1590   1.402       .  A
C1589      C1594   1.405       .  A
C1589      H1599   1.084       .  S
C1590      C1595   1.482       .  S
C1590      C1591   1.410       .  A
C1591      C1592   1.403       .  A
C1591      C1596   1.507       .  S
C1592      C1593   1.405       .  A
C1592      H1597   1.084       .  S
C1593      C1594   1.416       .  A
C1594      C1598   1.508       .  S
C1595      C1600   1.411       .  A
C1595      C1604   1.398       .  A
C1596      H1612   1.110       .  S
C1596      H1613   1.109       .  S
C1596      H1614   1.111       .  S
C1598      H1609   1.111       .  S
C1598      H1610   1.110       .  S
C1598      H1611   1.107       .  S
C1600      C1601   1.409       .  A
C1600      C1605   1.506       .  S
C1601      C1602   1.407       .  A
C1601      H1606   1.084       .  S
C1602      C1603   1.417       .  A
C1603      C1604   1.402       .  A
C1603      C1607   1.505       .  S
C1604      H1608   1.084       .  S
C1605      H1615   1.111       .  S
C1605      H1616   1.110       .  S
C1605      H1617   1.110       .  S
C1607      H1618   1.109       .  S
C1607      H1619   1.110       .  S
C1607      H1620   1.111       .  S
C1621      C1622   1.402       .  A
C1621      C1626   1.406       .  A
C1621      H1631   1.085       .  S
C1622      C1627   1.481       .  S
C1622      C1623   1.408       .  A
C1623      C1624   1.401       .  A
C1623      C1628   1.507       .  S
C1624      C1625   1.406       .  A
C1624      H1629   1.085       .  S
C1625      C1626   1.418       .  A
C1626      C1630   1.508       .  S
C1627      C1632   1.410       .  A
C1627      C1636   1.401       .  A
C1628      H1644   1.110       .  S
C1628      H1645   1.110       .  S
C1628      H1646   1.111       .  S
C1630      H1641   1.110       .  S
C1630      H1642   1.111       .  S
C1630      H1643   1.105       .  S
C1632      C1633   1.403   1_455  A
C1632      C1637   1.506       .  S
C1633      C1634   1.403       .  A
C1633      H1638   1.084       .  S
C1634      C1635   1.418       .  A
C1635      C1636   1.404   1_655  A
C1635      C1639   1.509       .  S
C1636      H1640   1.085       .  S
C1637      H1647   1.111       .  S
C1637      H1648   1.110       .  S
C1637      H1649   1.110       .  S
C1639      H1650   1.111       .  S
C1639      H1651   1.107       .  S
C1639      H1652   1.110       .  S
C1653      C1654   1.401       .  A
C1653      C1658   1.405       .  A
C1653      H1663   1.085       .  S
C1654      C1659   1.479       .  S
C1654      C1655   1.409       .  A
C1655      C1656   1.401       .  A
C1655      C1660   1.507       .  S
C1656      C1657   1.406       .  A
C1656      H1661   1.084       .  S
C1657      C1658   1.419       .  A
C1658      C1662   1.508       .  S
C1659      C1664   1.410       .  A
C1659      C1668   1.398       .  A
C1660      H1676   1.110       .  S
C1660      H1677   1.110       .  S
C1660      H1678   1.111       .  S
C1662      H1673   1.110       .  S
C1662      H1674   1.111       .  S
C1662      H1675   1.104       .  S
C1664      C1665   1.408   1_554  A
C1664      C1669   1.505       .  S
C1665      C1666   1.405       .  A
C1665      H1670   1.084       .  S
C1666      C1667   1.417       .  A
C1667      C1668   1.398   1_556  A
C1667      C1671   1.510       .  S
C1668      H1672   1.085       .  S
C1669      H1679   1.111   1_554  S
C1669      H1680   1.110       .  S
C1669      H1681   1.110       .  S
C1671      H1682   1.110       .  S
C1671      H1683   1.106       .  S
C1671      H1684   1.111       .  S
C1685      C1686   1.400       .  A
C1685      C1690   1.400       .  A
C1685      H1695   1.085       .  S
C1686      C1691   1.480       .  S
C1686      C1687   1.410       .  A
C1687      C1688   1.406       .  A
C1687      C1692   1.505       .  S
C1688      C1689   1.404       .  A
C1688      H1693   1.084       .  S
C1689      C1690   1.417       .  A
C1690      C1694   1.510       .  S
C1691      C1696   1.411       .  A
C1691      C1700   1.400       .  A
C1692      H1708   1.110       .  S
C1692      H1709   1.110       .  S
C1692      H1710   1.111       .  S
C1694      H1705   1.110       .  S
C1694      H1706   1.111       .  S
C1694      H1707   1.106       .  S
C1696      C1697   1.404       .  A
C1696      C1701   1.506       .  S
C1697      C1698   1.403       .  A
C1697      H1702   1.084       .  S
C1698      C1699   1.417       .  A
C1699      C1700   1.401       .  A
C1699      C1703   1.508       .  S
C1700      H1704   1.085       .  S
C1701      H1711   1.111       .  S
C1701      H1712   1.110       .  S
C1701      H1713   1.110       .  S
C1703      H1714   1.110       .  S
C1703      H1715   1.108       .  S
C1703      H1716   1.111       .  S
C1717      C1718   1.400       .  A
C1717      C1722   1.400   1_554  A
C1717      H1727   1.085       .  S
C1718      C1723   1.484       .  S
C1718      C1719   1.412       .  A
C1719      C1720   1.408   1_554  A
C1719      C1724   1.505       .  S
C1720      C1721   1.404       .  A
C1720      H1725   1.084       .  S
C1721      C1722   1.414       .  A
C1722      C1726   1.505       .  S
C1723      C1728   1.409       .  A
C1723      C1732   1.401       .  A
C1724      H1740   1.110       .  S
C1724      H1741   1.110       .  S
C1724      H1742   1.111       .  S
C1726      H1737   1.111       .  S
C1726      H1738   1.110       .  S
C1726      H1739   1.106       .  S
C1728      C1729   1.404       .  A
C1728      C1733   1.507       .  S
C1729      C1730   1.406       .  A
C1729      H1734   1.084       .  S
C1730      C1731   1.420       .  A
C1731      C1732   1.405       .  A
C1731      C1735   1.509       .  S
C1732      H1736   1.085       .  S
C1733      H1743   1.111       .  S
C1733      H1744   1.110       .  S
C1733      H1745   1.110       .  S
C1735      H1746   1.111       .  S
C1735      H1747   1.103       .  S
C1735      H1748   1.110       .  S
C1749      C1750   1.403       .  A
C1749      C1754   1.409       .  A
C1749      H1759   1.084       .  S
C1750      C1755   1.485       .  S
C1750      C1751   1.410       .  A
C1751      C1752   1.400       .  A
C1751      C1756   1.508       .  S
C1752      C1753   1.404       .  A
C1752      H1757   1.084       .  S
C1753      C1754   1.419       .  A
C1754      C1758   1.507       .  S
C1755      C1760   1.409       .  A
C1755      C1764   1.401       .  A
C1756      H1772   1.109       .  S
C1756      H1773   1.110       .  S
C1756      H1774   1.111       .  S
C1758      H1769   1.110       .  S
C1758      H1770   1.111       .  S
C1758      H1771   1.106       .  S
C1760      C1761   1.404       .  A
C1760      C1765   1.507       .  S
C1761      C1762   1.409       .  A
C1761      H1766   1.084       .  S
C1762      C1763   1.421       .  A
C1763      C1764   1.406       .  A
C1763      C1767   1.509       .  S
C1764      H1768   1.085       .  S
C1765      H1775   1.111       .  S
C1765      H1776   1.110       .  S
C1765      H1777   1.110       .  S
C1767      H1778   1.110       .  S
C1767      H1779   1.102       .  S
C1767      H1780   1.111       .  S
C1781      C1782   1.400       .  A
C1781      C1786   1.402       .  A
C1781      H1791   1.085       .  S
C1782      C1787   1.481       .  S
C1782      C1783   1.412       .  A
C1783      C1784   1.405       .  A
C1783      C1788   1.506       .  S
C1784      C1785   1.403       .  A
C1784      H1789   1.084       .  S
C1785      C1786   1.416       .  A
C1786      C1790   1.509       .  S
C1787      C1792   1.409       .  A
C1787      C1796   1.401       .  A
C1788      H1804   1.110       .  S
C1788      H1805   1.110       .  S
C1788      H1806   1.111       .  S
C1790      H1801   1.111       .  S
C1790      H1802   1.110       .  S
C1790      H1803   1.107       .  S
C1792      C1793   1.403       .  A
C1792      C1797   1.506       .  S
C1793      C1794   1.406       .  A
C1793      H1798   1.084       .  S
C1794      C1795   1.418       .  A
C1795      C1796   1.404       .  A
C1795      C1799   1.508       .  S
C1796      H1800   1.085       .  S
C1797      H1807   1.111       .  S
C1797      H1808   1.110       .  S
C1797      H1809   1.110       .  S
C1799      H1810   1.110       .  S
C1799      H1811   1.105       .  S
C1799      H1812   1.111       .  S
C1813      C1814   1.402       .  A
C1813      C1818   1.408       .  A
C1813      H1823   1.084       .  S
C1814      C1819   1.487       .  S
C1814      C1815   1.410       .  A
C1815      C1816   1.404       .  A
C1815      C1820   1.507       .  S
C1816      C1817   1.406       .  A
C1816      H1821   1.084       .  S
C1817      C1818   1.420       .  A
C1818      C1822   1.508       .  S
C1819      C1824   1.411       .  A
C1819      C1828   1.400       .  A
C1820      H1836   1.110       .  S
C1820      H1837   1.110       .  S
C1820      H1838   1.111       .  S
C1822      H1833   1.110       .  S
C1822      H1834   1.111       .  S
C1822      H1835   1.105       .  S
C1824      C1825   1.408       .  A
C1824      C1829   1.505       .  S
C1825      C1826   1.406       .  A
C1825      H1830   1.084       .  S
C1826      C1827   1.420       .  A
C1827      C1828   1.403       .  A
C1827      C1831   1.509       .  S
C1828      H1832   1.085       .  S
C1829      H1839   1.111       .  S
C1829      H1840   1.110       .  S
C1829      H1841   1.110       .  S
C1831      H1842   1.111       .  S
C1831      H1843   1.104       .  S
C1831      H1844   1.110       .  S
C1845      C1846   1.399       .  A
C1845      C1850   1.403       .  A
C1845      H1855   1.084       .  S
C1846      C1851   1.485       .  S
C1846      C1847   1.410       .  A
C1847      C1848   1.408       .  A
C1847      C1852   1.506       .  S
C1848      C1849   1.409       .  A
C1848      H1853   1.084       .  S
C1849      C1850   1.422       .  A
C1850      C1854   1.508       .  S
C1851      C1856   1.412       .  A
C1851      C1860   1.403       .  A
C1852      H1868   1.110       .  S
C1852      H1869   1.110       .  S
C1852      H1870   1.111       .  S
C1854      H1865   1.110       .  S
C1854      H1866   1.111       .  S
C1854      H1867   1.110       .  S
C1856      C1857   1.403       .  A
C1856      C1861   1.507       .  S
C1857      C1858   1.403       .  A
C1857      H1862   1.084       .  S
C1858      C1859   1.416       .  A
C1859      C1860   1.406       .  A
C1859      C1863   1.507       .  S
C1860      H1864   1.084       .  S
C1861      H1871   1.111       .  S
C1861      H1872   1.109       .  S
C1861      H1873   1.110       .  S
C1863      H1874   1.111       .  S
C1863      H1875   1.107       .  S
C1863      H1876   1.110       .  S
C1877      C1878   1.399       .  A
C1877      C1882   1.405       .  A
C1877      H1887   1.084       .  S
C1878      C1883   1.486       .  S
C1878      C1879   1.411       .  A
C1879      C1880   1.407       .  A
C1879      C1884   1.506       .  S
C1880      C1881   1.407       .  A
C1880      H1885   1.084       .  S
C1881      C1882   1.421       .  A
C1882      C1886   1.508       .  S
C1883      C1888   1.412       .  A
C1883      C1892   1.400       .  A
C1884      H1900   1.110       .  S
C1884      H1901   1.110       .  S
C1884      H1902   1.111       .  S
C1886      H1897   1.109       .  S
C1886      H1898   1.111       .  S
C1886      H1899   1.111       .  S
C1888      C1889   1.408   1_455  A
C1888      C1893   1.506       .  S
C1889      C1890   1.404       .  A
C1889      H1894   1.084       .  S
C1890      C1891   1.419       .  A
C1891      C1892   1.404   1_655  A
C1891      C1895   1.509       .  S
C1892      H1896   1.084       .  S
C1893      H1903   1.111       .  S
C1893      H1904   1.110       .  S
C1893      H1905   1.110       .  S
C1895      H1906   1.111       .  S
C1895      H1907   1.107       .  S
C1895      H1908   1.110       .  S
C1909      C1910   1.402       .  A
C1909      C1914   1.405       .  A
C1909      H1919   1.085       .  S
C1910      C1915   1.484       .  S
C1910      C1911   1.411       .  A
C1911      C1912   1.403       .  A
C1911      C1916   1.506       .  S
C1912      C1913   1.404       .  A
C1912      H1917   1.084       .  S
C1913      C1914   1.417       .  A
C1914      C1918   1.507   1_556  S
C1915      C1920   1.410       .  A
C1915      C1924   1.400       .  A
C1916      H1932   1.110       .  S
C1916      H1933   1.110       .  S
C1916      H1934   1.111       .  S
C1918      H1929   1.111       .  S
C1918      H1930   1.110       .  S
C1918      H1931   1.107       .  S
C1920      C1921   1.405       .  A
C1920      C1925   1.506       .  S
C1921      C1922   1.407       .  A
C1921      H1926   1.084       .  S
C1922      C1923   1.420       .  A
C1923      C1924   1.404       .  A
C1923      C1927   1.508       .  S
C1924      H1928   1.085       .  S
C1925      H1935   1.111       .  S
C1925      H1936   1.110       .  S
C1925      H1937   1.110       .  S
C1927      H1938   1.110       .  S
C1927      H1939   1.105       .  S
C1927      H1940   1.111       .  S
C1941      C1942   1.404       .  A
C1941      C1946   1.411       .  A
C1941      H1951   1.084       .  S
C1942      C1947   1.486       .  S
C1942      C1943   1.409       .  A
C1943      C1944   1.399       .  A
C1943      C1948   1.508       .  S
C1944      C1945   1.406       .  A
C1944      H1949   1.084       .  S
C1945      C1946   1.420       .  A
C1946      C1950   1.507       .  S
C1947      C1952   1.409       .  A
C1947      C1956   1.402       .  A
C1948      H1964   1.110       .  S
C1948      H1965   1.110       .  S
C1948      H1966   1.111       .  S
C1950      H1961   1.110       .  S
C1950      H1962   1.111       .  S
C1950      H1963   1.105       .  S
C1952      C1953   1.404       .  A
C1952      C1957   1.506       .  S
C1953      C1954   1.408       .  A
C1953      H1958   1.084       .  S
C1954      C1955   1.420       .  A
C1955      C1956   1.408       .  A
C1955      C1959   1.507       .  S
C1956      H1960   1.084       .  S
C1957      H1967   1.111       .  S
C1957      H1968   1.110       .  S
C1957      H1969   1.110       .  S
C1959      H1970   1.110       .  S
C1959      H1971   1.110       .  S
C1959      H1972   1.111       .  S
C1973      C1974   1.399       .  A
C1973      C1978   1.400       .  A
C1973      H1983   1.085       .  S
C1974      C1979   1.484       .  S
C1974      C1975   1.411       .  A
C1975      C1976   1.410       .  A
C1975      C1980   1.505       .  S
C1976      C1977   1.406       .  A
C1976      H1981   1.084       .  S
C1977      C1978   1.417       .  A
C1978      C1982   1.509       .  S
C1979      C1984   1.410       .  A
C1979      C1988   1.402       .  A
C1980      H1996   1.110       .  S
C1980      H1997   1.110       .  S
C1980      H1998   1.111       .  S
C1982      H1993   1.111       .  S
C1982      H1994   1.110       .  S
C1982      H1995   1.107       .  S
C1984      C1985   1.404       .  A
C1984      C1989   1.506       .  S
C1985      C1986   1.405       .  A
C1985      H1990   1.084       .  S
C1986      C1987   1.418       .  A
C1987      C1988   1.406       .  A
C1987      C1991   1.508       .  S
C1988      H1992   1.084       .  S
C1989      H1999   1.111       .  S
C1989      H2000   1.110       .  S
C1989      H2001   1.110       .  S
C1991      H2002   1.111       .  S
C1991      H2003   1.105       .  S
C1991      H2004   1.110       .  S
C2005      C2006   1.401       .  A
C2005      C2010   1.406       .  A
C2005      H2015   1.085       .  S
C2006      C2011   1.485       .  S
C2006      C2007   1.410       .  A
C2007      C2008   1.405       .  A
C2007      C2012   1.506       .  S
C2008      C2009   1.405       .  A
C2008      H2013   1.084       .  S
C2009      C2010   1.422       .  A
C2010      C2014   1.509       .  S
C2011      C2016   1.410       .  A
C2011      C2020   1.402       .  A
C2012      H2028   1.110       .  S
C2012      H2029   1.110       .  S
C2012      H2030   1.111       .  S
C2014      H2025   1.110       .  S
C2014      H2026   1.111       .  S
C2014      H2027   1.105       .  S
C2016      C2017   1.405       .  A
C2016      C2021   1.506       .  S
C2017      C2018   1.405       .  A
C2017      H2022   1.084       .  S
C2018      C2019   1.419       .  A
C2019      C2020   1.406       .  A
C2019      C2023   1.508       .  S
C2020      H2024   1.084       .  S
C2021      H2031   1.111       .  S
C2021      H2032   1.110       .  S
C2021      H2033   1.110       .  S
C2023      H2034   1.111       .  S
C2023      H2035   1.106       .  S
C2023      H2036   1.110       .  S
C2037      C2038   1.402       .  A
C2037      C2042   1.409       .  A
C2037      H2047   1.084       .  S
C2038      C2043   1.486       .  S
C2038      C2039   1.411       .  A
C2039      C2040   1.401       .  A
C2039      C2044   1.508       .  S
C2040      C2041   1.405       .  A
C2040      H2045   1.084       .  S
C2041      C2042   1.421       .  A
C2042      C2046   1.508       .  S
C2043      C2048   1.409       .  A
C2043      C2052   1.402       .  A
C2044      H2060   1.109       .  S
C2044      H2061   1.110       .  S
C2044      H2062   1.111       .  S
C2046      H2057   1.110       .  S
C2046      H2058   1.111       .  S
C2046      H2059   1.103       .  S
C2048      C2049   1.404       .  A
C2048      C2053   1.506       .  S
C2049      C2050   1.407       .  A
C2049      H2054   1.084       .  S
C2050      C2051   1.421       .  A
C2051      C2052   1.405       .  A
C2051      C2055   1.509       .  S
C2052      H2056   1.085       .  S
C2053      H2063   1.111       .  S
C2053      H2064   1.110       .  S
C2053      H2065   1.110       .  S
C2055      H2066   1.110       .  S
C2055      H2067   1.102       .  S
C2055      H2068   1.111       .  S
C2069      C2070   1.399       .  A
C2069      C2074   1.404       .  A
C2069      H2079   1.084       .  S
C2070      C2075   1.487       .  S
C2070      C2071   1.411       .  A
C2071      C2072   1.410       .  A
C2071      C2076   1.505       .  S
C2072      C2073   1.409       .  A
C2072      H2077   1.084       .  S
C2073      C2074   1.421       .  A
C2074      C2078   1.509       .  S
C2075      C2080   1.409       .  A
C2075      C2084   1.402       .  A
C2076      H2092   1.110       .  S
C2076      H2093   1.110       .  S
C2076      H2094   1.111       .  S
C2078      H2089   1.111       .  S
C2078      H2090   1.111       .  S
C2078      H2091   1.110       .  S
C2080      C2081   1.405       .  A
C2080      C2085   1.507       .  S
C2081      C2082   1.409       .  A
C2081      H2086   1.084       .  S
C2082      C2083   1.421       .  A
C2083      C2084   1.409       .  A
C2083      C2087   1.507       .  S
C2084      H2088   1.084       .  S
C2085      H2095   1.111       .  S
C2085      H2096   1.110       .  S
C2085      H2097   1.110       .  S
C2087      H2098   1.111       .  S
C2087      H2099   1.110       .  S
C2087      H2100   1.111       .  S
C2101      C2102   1.399   1_556  A
C2101      C2106   1.404   1_456  A
C2101      H2111   1.084       .  S
C2102      C2107   1.482   1_554  S
C2102      C2103   1.410       .  A
C2103      C2104   1.406   1_455  A
C2103      C2108   1.506       .  S
C2104      C2105   1.407       .  A
C2104      H2109   1.084       .  S
C2105      C2106   1.420       .  A
C2106      C2110   1.508   1_554  S
C2107      C2112   1.411       .  A
C2107      C2116   1.401   1_556  A
C2108      H2124   1.110       .  S
C2108      H2125   1.110       .  S
C2108      H2126   1.111       .  S
C2110      H2121   1.111       .  S
C2110      H2122   1.110   1_556  S
C2110      H2123   1.111       .  S
C2112      C2113   1.405       .  A
C2112      C2117   1.506       .  S
C2113      C2114   1.404       .  A
C2113      H2118   1.084       .  S
C2114      C2115   1.418   1_556  A
C2115      C2116   1.404       .  A
C2115      C2119   1.509       .  S
C2116      H2120   1.085       .  S
C2117      H2127   1.111       .  S
C2117      H2128   1.110       .  S
C2117      H2129   1.110       .  S
C2119      H2130   1.110       .  S
C2119      H2131   1.105       .  S
C2119      H2132   1.111       .  S
C2133      C2134   1.400       .  A
C2133      C2138   1.407       .  A
C2133      H2143   1.084       .  S
C2134      C2139   1.477       .  S
C2134      C2135   1.408       .  A
C2135      C2136   1.399       .  A
C2135      C2140   1.508       .  S
C2136      C2137   1.406       .  A
C2136      H2141   1.084       .  S
C2137      C2138   1.419       .  A
C2138      C2142   1.506       .  S
C2139      C2144   1.410       .  A
C2139      C2148   1.400       .  A
C2140      H2156   1.110   1_556  S
C2140      H2157   1.110       .  S
C2140      H2158   1.111   1_556  S
C2142      H2153   1.110       .  S
C2142      H2154   1.111       .  S
C2142      H2155   1.110       .  S
C2144      C2145   1.403       .  A
C2144      C2149   1.506       .  S
C2145      C2146   1.402       .  A
C2145      H2150   1.084       .  S
C2146      C2147   1.416       .  A
C2147      C2148   1.401       .  A
C2147      C2151   1.509   1_556  S
C2148      H2152   1.085       .  S
C2149      H2159   1.111       .  S
C2149      H2160   1.110       .  S
C2149      H2161   1.110       .  S
C2151      H2162   1.110       .  S
C2151      H2163   1.106   1_554  S
C2151      H2164   1.111       .  S
C2165      C2166   1.400       .  A
C2165      C2170   1.403       .  A
C2165      H2175   1.085       .  S
C2166      C2171   1.480       .  S
C2166      C2167   1.408       .  A
C2167      C2168   1.402       .  A
C2167      C2172   1.506       .  S
C2168      C2169   1.405       .  A
C2168      H2173   1.084       .  S
C2169      C2170   1.419       .  A
C2170      C2174   1.509       .  S
C2171      C2176   1.409       .  A
C2171      C2180   1.401       .  A
C2172      H2188   1.110       .  S
C2172      H2189   1.111   1_554  S
C2172      H2190   1.111       .  S
C2174      H2185   1.111       .  S
C2174      H2186   1.111       .  S
C2174      H2187   1.105       .  S
C2176      C2177   1.402       .  A
C2176      C2181   1.506       .  S
C2177      C2178   1.405       .  A
C2177      H2182   1.084       .  S
C2178      C2179   1.418       .  A
C2179      C2180   1.405       .  A
C2179      C2183   1.507       .  S
C2180      H2184   1.084       .  S
C2181      H2191   1.111   1_554  S
C2181      H2192   1.110       .  S
C2181      H2193   1.110   1_554  S
C2183      H2194   1.111       .  S
C2183      H2195   1.111       .  S
C2183      H2196   1.110       .  S
C2197      C2198   1.401   1_556  A
C2197      C2202   1.407       .  A
C2197      H2207   1.084       .  S
C2198      C2203   1.483       .  S
C2198      C2199   1.410       .  A
C2199      C2200   1.402       .  A
C2199      C2204   1.508       .  S
C2200      C2201   1.407       .  A
C2200      H2205   1.084       .  S
C2201      C2202   1.419   1_554  A
C2202      C2206   1.507       .  S
C2203      C2208   1.410       .  A
C2203      C2212   1.402   1_554  A
C2204      H2220   1.110       .  S
C2204      H2221   1.110       .  S
C2204      H2222   1.111       .  S
C2206      H2217   1.110   1_556  S
C2206      H2218   1.111       .  S
C2206      H2219   1.110       .  S
C2208      C2209   1.404       .  A
C2208      C2213   1.506       .  S
C2209      C2210   1.405   1_554  A
C2209      H2214   1.084       .  S
C2210      C2211   1.416       .  A
C2211      C2212   1.403       .  A
C2211      C2215   1.508       .  S
C2212      H2216   1.085       .  S
C2213      H2223   1.111       .  S
C2213      H2224   1.110       .  S
C2213      H2225   1.110       .  S
C2215      H2226   1.111       .  S
C2215      H2227   1.106       .  S
C2215      H2228   1.110       .  S
C2229      C2230   1.399       .  A
C2229      C2234   1.402       .  A
C2229      H2239   1.085       .  S
C2230      C2235   1.479       .  S
C2230      C2231   1.411       .  A
C2231      C2232   1.404       .  A
C2231      C2236   1.507       .  S
C2232      C2233   1.405       .  A
C2232      H2237   1.084       .  S
C2233      C2234   1.417       .  A
C2234      C2238   1.509       .  S
C2235      C2240   1.409       .  A
C2235      C2244   1.399       .  A
C2236      H2252   1.110       .  S
C2236      H2253   1.109       .  S
C2236      H2254   1.111       .  S
C2238      H2249   1.111       .  S
C2238      H2250   1.110       .  S
C2238      H2251   1.105       .  S
C2240      C2241   1.403       .  A
C2240      C2245   1.507       .  S
C2241      C2242   1.405       .  A
C2241      H2246   1.084       .  S
C2242      C2243   1.421       .  A
C2243      C2244   1.404       .  A
C2243      C2247   1.509       .  S
C2244      H2248   1.085       .  S
C2245      H2255   1.111       .  S
C2245      H2256   1.110       .  S
C2245      H2257   1.109       .  S
C2247      H2258   1.110       .  S
C2247      H2259   1.104       .  S
C2247      H2260   1.111       .  S
C2261      C2262   1.399       .  A
C2261      C2266   1.405       .  A
C2261      H2271   1.084       .  S
C2262      C2267   1.478       .  S
C2262      C2263   1.407       .  A
C2263      C2264   1.402       .  A
C2263      C2268   1.507       .  S
C2264      C2265   1.409       .  A
C2264      H2269   1.084       .  S
C2265      C2266   1.419       .  A
C2266      C2270   1.507       .  S
C2267      C2272   1.408       .  A
C2267      C2276   1.400       .  A
C2268      H2284   1.110       .  S
C2268      H2285   1.110       .  S
C2268      H2286   1.111       .  S
C2270      H2281   1.110       .  S
C2270      H2282   1.111       .  S
C2270      H2283   1.110       .  S
C2272      C2273   1.399       .  A
C2272      C2277   1.508       .  S
C2273      C2274   1.407       .  A
C2273      H2278   1.084       .  S
C2274      C2275   1.421       .  A
C2275      C2276   1.406       .  A
C2275      C2279   1.508       .  S
C2276      H2280   1.084       .  S
C2277      H2287   1.111       .  S
C2277      H2288   1.110       .  S
C2277      H2289   1.110       .  S
C2279      H2290   1.111       .  S
C2279      H2291   1.104       .  S
C2279      H2292   1.110       .  S
C2293      C2294   1.400       .  A
C2293      C2298   1.402       .  A
C2293      H2303   1.085       .  S
C2294      C2299   1.483       .  S
C2294      C2295   1.410       .  A
C2295      C2296   1.407       .  A
C2295      C2300   1.505       .  S
C2296      C2297   1.405       .  A
C2296      H2301   1.084       .  S
C2297      C2298   1.417       .  A
C2298      C2302   1.509       .  S
C2299      C2304   1.408       .  A
C2299      C2308   1.402       .  A
C2300      H2316   1.110       .  S
C2300      H2317   1.110       .  S
C2300      H2318   1.111       .  S
C2302      H2313   1.111       .  S
C2302      H2314   1.110       .  S
C2302      H2315   1.107       .  S
C2304      C2305   1.403       .  A
C2304      C2309   1.507       .  S
C2305      C2306   1.407       .  A
C2305      H2310   1.084       .  S
C2306      C2307   1.419       .  A
C2307      C2308   1.408       .  A
C2307      C2311   1.507       .  S
C2308      H2312   1.084       .  S
C2309      H2319   1.111       .  S
C2309      H2320   1.110       .  S
C2309      H2321   1.110       .  S
C2311      H2322   1.110       .  S
C2311      H2323   1.110       .  S
C2311      H2324   1.111       .  S
C2325      C2326   1.402       .  A
C2325      C2330   1.406       .  A
C2325      H2335   1.085       .  S
C2326      C2331   1.487       .  S
C2326      C2327   1.411       .  A
C2327      C2328   1.404       .  A
C2327      C2332   1.507       .  S
C2328      C2329   1.405       .  A
C2328      H2333   1.084       .  S
C2329      C2330   1.419       .  A
C2330      C2334   1.508       .  S
C2331      C2336   1.411       .  A
C2331      C2340   1.402       .  A
C2332      H2348   1.109       .  S
C2332      H2349   1.111       .  S
C2332      H2350   1.111       .  S
C2334      H2345   1.110       .  S
C2334      H2346   1.111       .  S
C2334      H2347   1.105       .  S
C2336      C2337   1.406       .  A
C2336      C2341   1.506       .  S
C2337      C2338   1.406       .  A
C2337      H2342   1.084       .  S
C2338      C2339   1.418       .  A
C2339      C2340   1.405       .  A
C2339      C2343   1.508       .  S
C2340      H2344   1.084       .  S
C2341      H2351   1.111       .  S
C2341      H2352   1.110       .  S
C2341      H2353   1.110       .  S
C2343      H2354   1.111       .  S
C2343      H2355   1.111       .  S
C2343      H2356   1.109       .  S
C2357      C2358   1.400       .  A
C2357      C2362   1.402       .  A
C2357      H2367   1.085       .  S
C2358      C2363   1.478       .  S
C2358      C2359   1.407       .  A
C2359      C2360   1.403       .  A
C2359      C2364   1.506       .  S
C2360      C2361   1.407       .  A
C2360      H2365   1.084       .  S
C2361      C2362   1.419       .  A
C2362      C2366   1.509       .  S
C2363      C2368   1.409       .  A
C2363      C2372   1.401       .  A
C2364      H2380   1.110       .  S
C2364      H2381   1.110       .  S
C2364      H2382   1.111       .  S
C2366      H2377   1.111       .  S
C2366      H2378   1.110       .  S
C2366      H2379   1.103       .  S
C2368      C2369   1.397       .  A
C2368      C2373   1.508       .  S
C2369      C2370   1.403       .  A
C2369      H2374   1.085       .  S
C2370      C2371   1.420       .  A
C2371      C2372   1.407       .  A
C2371      C2375   1.508       .  S
C2372      H2376   1.084       .  S
C2373      H2383   1.111       .  S
C2373      H2384   1.110       .  S
C2373      H2385   1.110       .  S
C2375      H2386   1.111       .  S
C2375      H2387   1.104       .  S
C2375      H2388   1.110       .  S
C2389      C2390   1.401       .  A
C2389      C2394   1.404       .  A
C2389      H2399   1.084       .  S
C2390      C2395   1.478       .  S
C2390      C2391   1.409       .  A
C2391      C2392   1.402       .  A
C2391      C2396   1.507       .  S
C2392      C2393   1.405       .  A
C2392      H2397   1.084       .  S
C2393      C2394   1.417       .  A
C2394      C2398   1.508       .  S
C2395      C2400   1.411       .  A
C2395      C2404   1.400       .  A
C2396      H2412   1.110       .  S
C2396      H2413   1.110       .  S
C2396      H2414   1.111       .  S
C2398      H2409   1.111       .  S
C2398      H2410   1.111       .  S
C2398      H2411   1.109       .  S
C2400      C2401   1.406       .  A
C2400      C2405   1.505       .  S
C2401      C2402   1.403       .  A
C2401      H2406   1.084       .  S
C2402      C2403   1.414       .  A
C2403      C2404   1.399       .  A
C2403      C2407   1.509       .  S
C2404      H2408   1.085       .  S
C2405      H2415   1.111       .  S
C2405      H2416   1.110       .  S
C2405      H2417   1.110       .  S
C2407      H2418   1.109       .  S
C2407      H2419   1.111       .  S
C2407      H2420   1.111       .  S
C2421      C2422   1.401       .  A
C2421      C2426   1.402       .  A
C2421      H2431   1.084       .  S
C2422      C2427   1.481       .  S
C2422      C2423   1.411       .  A
C2423      C2424   1.404       .  A
C2423      C2428   1.506       .  S
C2424      C2425   1.403       .  A
C2424      H2429   1.084       .  S
C2425      C2426   1.418       .  A
C2426      C2430   1.510       .  S
C2427      C2432   1.410       .  A
C2427      C2436   1.399       .  A
C2428      H2444   1.110       .  S
C2428      H2445   1.110       .  S
C2428      H2446   1.111       .  S
C2430      H2441   1.110       .  S
C2430      H2442   1.111       .  S
C2430      H2443   1.107       .  S
C2432      C2433   1.404       .  A
C2432      C2437   1.506       .  S
C2433      C2434   1.405       .  A
C2433      H2438   1.084       .  S
C2434      C2435   1.420       .  A
C2435      C2436   1.404       .  A
C2435      C2439   1.508       .  S
C2436      H2440   1.084       .  S
C2437      H2447   1.111       .  S
C2437      H2448   1.110       .  S
C2437      H2449   1.110       .  S
C2439      H2450   1.111       .  S
C2439      H2451   1.110       .  S
C2439      H2452   1.111       .  S
C2453      C2454   1.401       .  A
C2453      C2458   1.401       .  A
C2453      H2463   1.085       .  S
C2454      C2459   1.484       .  S
C2454      C2455   1.412       .  A
C2455      C2456   1.404       .  A
C2455      C2460   1.507       .  S
C2456      C2457   1.404       .  A
C2456      H2461   1.084       .  S
C2457      C2458   1.417       .  A
C2458      C2462   1.509       .  S
C2459      C2464   1.410       .  A
C2459      C2468   1.402       .  A
C2460      H2476   1.109       .  S
C2460      H2477   1.110       .  S
C2460      H2478   1.111       .  S
C2462      H2473   1.110       .  S
C2462      H2474   1.110       .  S
C2462      H2475   1.104       .  S
C2464      C2465   1.403       .  A
C2464      C2469   1.508       .  S
C2465      C2466   1.408       .  A
C2465      H2470   1.084       .  S
C2466      C2467   1.418       .  A
C2467      C2468   1.406       .  A
C2467      C2471   1.507       .  S
C2468      H2472   1.084       .  S
C2469      H2479   1.111       .  S
C2469      H2480   1.109       .  S
C2469      H2481   1.110       .  S
C2471      H2482   1.111       .  S
C2471      H2483   1.110       .  S
C2471      H2484   1.110       .  S
C2485      C2486   1.400       .  A
C2485      C2490   1.406       .  A
C2485      H2495   1.084       .  S
C2486      C2491   1.480       .  S
C2486      C2487   1.410       .  A
C2487      C2488   1.400       .  A
C2487      C2492   1.507       .  S
C2488      C2489   1.404       .  A
C2488      H2493   1.084       .  S
C2489      C2490   1.420       .  A
C2490      C2494   1.507       .  S
C2491      C2496   1.411       .  A
C2491      C2500   1.399       .  A
C2492      H2508   1.109       .  S
C2492      H2509   1.110       .  S
C2492      H2510   1.111       .  S
C2494      H2505   1.110       .  S
C2494      H2506   1.111       .  S
C2494      H2507   1.110       .  S
C2496      C2497   1.406       .  A
C2496      C2501   1.506       .  S
C2497      C2498   1.404       .  A
C2497      H2502   1.084       .  S
C2498      C2499   1.416       .  A
C2499      C2500   1.400       .  A
C2499      C2503   1.509       .  S
C2500      H2504   1.084       .  S
C2501      H2511   1.111       .  S
C2501      H2512   1.110       .  S
C2501      H2513   1.110       .  S
C2503      H2514   1.111       .  S
C2503      H2515   1.109       .  S
C2503      H2516   1.111       .  S
C2517      C2518   1.399       .  A
C2517      C2522   1.398       .  A
C2517      H2527   1.085       .  S
C2518      C2523   1.469       .  S
C2518      C2519   1.407       .  A
C2519      C2520   1.400       .  A
C2519      C2524   1.506       .  S
C2520      C2521   1.404       .  A
C2520      H2525   1.084       .  S
C2521      C2522   1.415       .  A
C2522      C2526   1.508       .  S
C2523      C2528   1.408       .  A
C2523      C2532   1.398       .  A
C2524      H2540   1.110       .  S
C2524      H2541   1.109       .  S
C2524      H2542   1.111       .  S
C2526      H2537   1.110       .  S
C2526      H2538   1.111       .  S
C2526      H2539   1.106       .  S
C2528      C2529   1.399   1_545  A
C2528      C2533   1.507       .  S
C2529      C2530   1.404       .  A
C2529      H2534   1.084       .  S
C2530      C2531   1.417       .  A
C2531      C2532   1.400   1_565  A
C2531      C2535   1.509       .  S
C2532      H2536   1.085       .  S
C2533      H2543   1.111       .  S
C2533      H2544   1.110       .  S
C2533      H2545   1.110       .  S
C2535      H2546   1.111       .  S
C2535      H2547   1.105       .  S
C2535      H2548   1.110       .  S
C2549      C2550   1.403       .  A
C2549      C2554   1.408       .  A
C2549      H2559   1.084       .  S
C2550      C2555   1.486       .  S
C2550      C2551   1.410       .  A
C2551      C2552   1.403       .  A
C2551      C2556   1.507       .  S
C2552      C2553   1.404       .  A
C2552      H2557   1.084       .  S
C2553      C2554   1.417       .  A
C2554      C2558   1.508   1_554  S
C2555      C2560   1.410       .  A
C2555      C2564   1.403       .  A
C2556      H2572   1.110       .  S
C2556      H2573   1.110       .  S
C2556      H2574   1.111       .  S
C2558      H2569   1.111       .  S
C2558      H2570   1.110       .  S
C2558      H2571   1.106       .  S
C2560      C2561   1.402       .  A
C2560      C2565   1.507       .  S
C2561      C2562   1.405       .  A
C2561      H2566   1.084       .  S
C2562      C2563   1.420       .  A
C2563      C2564   1.409       .  A
C2563      C2567   1.508       .  S
C2564      H2568   1.084       .  S
C2565      H2575   1.111       .  S
C2565      H2576   1.110       .  S
C2565      H2577   1.110       .  S
C2567      H2578   1.110       .  S
C2567      H2579   1.105       .  S
C2567      H2580   1.111       .  S
C2581      C2582   1.400       .  A
C2581      C2586   1.407       .  A
C2581      H2591   1.084       .  S
C2582      C2587   1.491       .  S
C2582      C2583   1.411       .  A
C2583      C2584   1.409       .  A
C2583      C2588   1.506       .  S
C2584      C2585   1.409       .  A
C2584      H2589   1.084       .  S
C2585      C2586   1.423       .  A
C2586      C2590   1.508       .  S
C2587      C2592   1.412       .  A
C2587      C2596   1.399       .  A
C2588      H2604   1.110       .  S
C2588      H2605   1.111       .  S
C2588      H2606   1.111       .  S
C2590      H2601   1.110       .  S
C2590      H2602   1.111       .  S
C2590      H2603   1.110       .  S
C2592      C2593   1.410       .  A
C2592      C2597   1.506       .  S
C2593      C2594   1.409       .  A
C2593      H2598   1.084       .  S
C2594      C2595   1.423       .  A
C2595      C2596   1.406       .  A
C2595      C2599   1.508       .  S
C2596      H2600   1.084       .  S
C2597      H2607   1.111       .  S
C2597      H2608   1.110       .  S
C2597      H2609   1.110       .  S
C2599      H2610   1.111       .  S
C2599      H2611   1.109       .  S
C2599      H2612   1.110       .  S
C2613      C2614   1.403       .  A
C2613      C2618   1.409       .  A
C2613      H2623   1.084       .  S
C2614      C2619   1.487       .  S
C2614      C2615   1.410       .  A
C2615      C2616   1.403       .  A
C2615      C2620   1.507       .  S
C2616      C2617   1.406       .  A
C2616      H2621   1.084       .  S
C2617      C2618   1.419       .  A
C2618      C2622   1.507       .  S
C2619      C2624   1.412       .  A
C2619      C2628   1.400       .  A
C2620      H2636   1.110       .  S
C2620      H2637   1.110       .  S
C2620      H2638   1.111       .  S
C2622      H2633   1.111       .  S
C2622      H2634   1.110       .  S
C2622      H2635   1.105       .  S
C2624      C2625   1.408       .  A
C2624      C2629   1.506       .  S
C2625      C2626   1.406       .  A
C2625      H2630   1.084       .  S
C2626      C2627   1.420       .  A
C2627      C2628   1.405       .  A
C2627      C2631   1.508       .  S
C2628      H2632   1.084       .  S
C2629      H2639   1.111       .  S
C2629      H2640   1.110       .  S
C2629      H2641   1.110       .  S
C2631      H2642   1.111       .  S
C2631      H2643   1.107       .  S
C2631      H2644   1.110       .  S
C2645      C2646   1.401       .  A
C2645      C2650   1.403       .  A
C2645      H2655   1.085       .  S
C2646      C2651   1.484       .  S
C2646      C2647   1.412       .  A
C2647      C2648   1.406       .  A
C2647      C2652   1.505       .  S
C2648      C2649   1.403       .  A
C2648      H2653   1.084       .  S
C2649      C2650   1.415       .  A
C2650      C2654   1.509   1_556  S
C2651      C2656   1.409       .  A
C2651      C2660   1.400       .  A
C2652      H2668   1.110       .  S
C2652      H2669   1.110       .  S
C2652      H2670   1.111       .  S
C2654      H2665   1.111       .  S
C2654      H2666   1.110       .  S
C2654      H2667   1.108       .  S
C2656      C2657   1.405       .  A
C2656      C2661   1.506       .  S
C2657      C2658   1.406       .  A
C2657      H2662   1.084       .  S
C2658      C2659   1.421       .  A
C2659      C2660   1.406       .  A
C2659      C2663   1.508       .  S
C2660      H2664   1.084       .  S
C2661      H2671   1.111       .  S
C2661      H2672   1.110       .  S
C2661      H2673   1.110       .  S
C2663      H2674   1.110       .  S
C2663      H2675   1.111       .  S
C2663      H2676   1.111       .  S
C2677      C2678   1.399       .  A
C2677      C2682   1.407       .  A
C2677      H2687   1.085       .  S
C2678      C2683   1.482       .  S
C2678      C2679   1.408       .  A
C2679      C2680   1.401       .  A
C2679      C2684   1.508       .  S
C2680      C2681   1.408       .  A
C2680      H2685   1.084       .  S
C2681      C2682   1.424       .  A
C2682      C2686   1.509       .  S
C2683      C2688   1.407       .  A
C2683      C2692   1.402       .  A
C2684      H2700   1.110       .  S
C2684      H2701   1.110       .  S
C2684      H2702   1.111       .  S
C2686      H2697   1.110       .  S
C2686      H2698   1.111       .  S
C2686      H2699   1.100       .  S
C2688      C2689   1.402       .  A
C2688      C2693   1.506       .  S
C2689      C2690   1.408       .  A
C2689      H2694   1.084       .  S
C2690      C2691   1.420       .  A
C2691      C2692   1.405       .  A
C2691      C2695   1.508       .  S
C2692      H2696   1.085       .  S
C2693      H2703   1.111       .  S
C2693      H2704   1.110       .  S
C2693      H2705   1.110       .  S
C2695      H2706   1.110       .  S
C2695      H2707   1.102       .  S
C2695      H2708   1.111       .  S
C2709      C2710   1.402       .  A
C2709      C2714   1.408       .  A
C2709      H2719   1.084       .  S
C2710      C2715   1.484       .  S
C2710      C2711   1.410       .  A
C2711      C2712   1.402       .  A
C2711      C2716   1.508       .  S
C2712      C2713   1.406       .  A
C2712      H2717   1.084       .  S
C2713      C2714   1.419       .  A
C2714      C2718   1.507       .  S
C2715      C2720   1.410       .  A
C2715      C2724   1.398       .  A
C2716      H2732   1.110       .  S
C2716      H2733   1.110       .  S
C2716      H2734   1.111       .  S
C2718      H2729   1.111       .  S
C2718      H2730   1.110       .  S
C2718      H2731   1.105       .  S
C2720      C2721   1.407       .  A
C2720      C2725   1.507       .  S
C2721      C2722   1.409       .  A
C2721      H2726   1.083       .  S
C2722      C2723   1.423       .  A
C2723      C2724   1.406       .  A
C2723      C2727   1.508       .  S
C2724      H2728   1.084       .  S
C2725      H2735   1.111       .  S
C2725      H2736   1.110       .  S
C2725      H2737   1.110       .  S
C2727      H2738   1.111       .  S
C2727      H2739   1.110       .  S
C2727      H2740   1.110       .  S
C2741      C2742   1.402   1_554  A
C2741      C2746   1.406       .  A
C2741      H2751   1.085       .  S
C2742      C2747   1.484       .  S
C2742      C2743   1.409       .  A
C2743      C2744   1.403       .  A
C2743      C2748   1.507       .  S
C2744      C2745   1.406   1_556  A
C2744      H2749   1.084       .  S
C2745      C2746   1.419       .  A
C2746      C2750   1.508       .  S
C2747      C2752   1.412   1_556  A
C2747      C2756   1.402   1_545  A
C2748      H2764   1.110       .  S
C2748      H2765   1.110       .  S
C2748      H2766   1.111       .  S
C2750      H2761   1.111       .  S
C2750      H2762   1.110       .  S
C2750      H2763   1.105       .  S
C2752      C2753   1.404   1_544  A
C2752      C2757   1.506       .  S
C2753      C2754   1.402       .  A
C2753      H2758   1.084   1_556  S
C2754      C2755   1.415       .  A
C2755      C2756   1.405       .  A
C2755      C2759   1.508       .  S
C2756      H2760   1.084   1_565  S
C2757      H2767   1.111       .  S
C2757      H2768   1.110       .  S
C2757      H2769   1.110       .  S
C2759      H2770   1.109       .  S
C2759      H2771   1.111       .  S
C2759      H2772   1.111       .  S
