geometry optimzed in LAMMPS
_audit_creation_date              2020-12-01 
_audit_creation_method            'lammps2cif' 
_symmetry_space_group_name_H-M    'P1' 
_symmetry_Int_Tables_number       1 
_symmetry_cell_setting            triclinic 
loop_ 
_symmetry_equiv_pos_as_xyz 
  x,y,z 
_cell_length_a                    28.91010779 
_cell_length_b                    28.37832105852794 
_cell_length_c                    29.016471174997704 
_cell_angle_alpha                 90.88426082914428 
_cell_angle_beta                  89.01525107455909 
_cell_angle_gamma                 88.58221792187636 
loop_ 
_atom_site_label 
_atom_site_type_symbol 
_atom_site_fract_x 
_atom_site_fract_y 
_atom_site_fract_z 
_atom_site_charge 
N1          N  0.04776022  0.05807687  0.07522500    -0.06600
N2          N  0.08166641  0.06854325  0.10337548    -0.58700
N3          N  0.93823389  0.08388578  0.04532335    -0.06200
N4          N  0.90552088  0.11570791  0.05514783    -0.60800
N5          N  0.94163636  0.05307457  0.07864480    -0.05800
N6          N  0.91121859  0.06379977  0.11210281    -0.58700
N7          N  0.04395332  0.08999812  0.04302496    -0.05500
N8          N  0.07530855  0.12238757  0.04808802    -0.61200
C9          C  0.09867370  0.10855989  0.08549848     0.95600
C10         C  0.88860875  0.10268035  0.09647416     0.95400
N11         N  0.94224603  0.05090421  0.90345940    -0.06700
N12         N  0.91035846  0.05712118  0.87207835    -0.59300
N13         N  0.04448570  0.09083895  0.93688338    -0.04900
N14         N  0.07790469  0.12141473  0.93432065    -0.60500
N15         N  0.04839838  0.05934070  0.90328140    -0.06800
N16         N  0.08457082  0.06840326  0.87647283    -0.59500
N17         N  0.93861873  0.08373543  0.93586198    -0.04500
N18         N  0.90441629  0.11361358  0.92674837    -0.60600
Mn19       Mn  0.99072745  0.08828975  0.99030822     1.18400
C20         C  0.88690718  0.09611927  0.88715501     0.97700
C21         C  0.10238071  0.10736969  0.89646596     0.98400
N22         N  0.95031286  0.94137153  0.07565588    -0.06800
N23         N  0.91613561  0.93236381  0.10474110    -0.63100
N24         N  0.05825592  0.91513072  0.03954351    -0.05600
N25         N  0.09150774  0.88363867  0.04589787    -0.63800
N26         N  0.05609950  0.94623844  0.07364380    -0.06300
N27         N  0.08783730  0.93590429  0.10445396    -0.63400
N28         N  0.95230176  0.90983969  0.04187881    -0.05200
N29         N  0.91905450  0.87919861  0.04680053    -0.64100
Mn30       Mn  0.99906140  0.99965035  0.07765339     1.10700
C31         C  0.89706850  0.89353659  0.08615479     0.98900
C32         C  0.10992567  0.89709504  0.08609067     0.99000
N33         N  0.05702945  0.94887708  0.90150826    -0.06300
N34         N  0.09052045  0.94366892  0.87047659    -0.61700
N35         N  0.95325607  0.90982825  0.93470740    -0.05600
N36         N  0.91960968  0.87970822  0.93123060    -0.58400
N37         N  0.95110856  0.94118435  0.90190776    -0.06900
N38         N  0.91591675  0.93258889  0.87474436    -0.61200
N39         N  0.05907137  0.91501518  0.93185311    -0.05900
N40         N  0.09389910  0.88539094  0.92160350    -0.58400
Mn41       Mn  0.99980720  0.00006501  0.90096521     1.20200
Mn42       Mn  0.00589598  0.91109944  0.98701792     1.10100
Cl43       Cl  0.99873336  0.99978927  0.98908611    -0.86400
C44         C  0.11326803  0.90421448  0.88345062     0.95900
C45         C  0.89691942  0.89405446  0.89367716     0.95700
C46         C  0.72894797  0.80481079  0.82311153     0.86000
C47         C  0.75230138  0.75580197  0.82947807    -0.54200
C48         C  0.79502534  0.75140602  0.80869691     0.09000
C49         C  0.81044549  0.79574123  0.78384417     0.19900
C50         C  0.76459760  0.83943942  0.84130317    -0.54900
C51         C  0.80698439  0.83488195  0.82046889     0.09100
C52         C  0.72880189  0.81159738  0.77081108    -0.54400
C53         C  0.77156457  0.80695419  0.75021278     0.09600
H54         H  0.73766105  0.72707785  0.84845218     0.14200
H55         H  0.84555651  0.79195771  0.76802823    -0.00100
H56         H  0.75683683  0.86550516  0.86834631     0.14500
H57         H  0.69786154  0.82186003  0.75238448     0.14300
C58         C  0.73161697  0.81899521  0.18411658     0.86000
C59         C  0.76742933  0.84793342  0.15768213    -0.54200
C60         C  0.81184470  0.83947815  0.17050994     0.09000
C61         C  0.81695758  0.80203615  0.20755245     0.19900
C62         C  0.74804912  0.76738660  0.17509557    -0.54900
C63         C  0.79290214  0.75857183  0.18752820     0.09100
C64         C  0.74071452  0.82814323  0.23509312    -0.54400
C65         C  0.78525706  0.81912601  0.24745152     0.09600
H66         H  0.75839280  0.87361214  0.13172981     0.14200
H67         H  0.85350301  0.79573366  0.21733483    -0.00100
H68         H  0.72720255  0.74032058  0.15981290     0.14500
H69         H  0.71434248  0.84218260  0.25904114     0.14300
N70         N  0.55374943  0.87326924  0.01576774    -0.37000
N71         N  0.48777482  0.84135230  0.94767935    -0.57600
N72         N  0.41942601  0.83088403  0.01957323    -0.37000
N73         N  0.48475854  0.85723707  0.08803251    -0.57600
C74         C  0.58190095  0.86283116  0.97904337     0.26500
C75         C  0.58031639  0.87115706  0.05365067     0.26500
C76         C  0.39995913  0.80829734  0.98393761     0.26500
C77         C  0.39884002  0.81533707  0.05829411     0.26500
C78         C  0.52192648  0.85561537  0.91957643     0.35200
C79         C  0.45027225  0.83676832  0.92129503     0.35200
C80         C  0.51800565  0.87602382  0.11371710     0.35200
C81         C  0.44691949  0.85562351  0.11549956     0.35200
C82         C  0.62708712  0.85676510  0.99349338    -0.22300
C83         C  0.62610767  0.86190932  0.04044509    -0.22300
C84         C  0.36676099  0.77787756  0.00007959    -0.22300
C85         C  0.36582385  0.78256645  0.04716897    -0.22300
C86         C  0.50646116  0.85971772  0.87489083    -0.23400
C87         C  0.46051617  0.84861841  0.87611589    -0.23400
C88         C  0.50148800  0.88616349  0.15797106    -0.23400
C89         C  0.45590646  0.87363148  0.15897637    -0.23400
C90         C  0.56810546  0.85779465  0.93278668    -0.18700
C91         C  0.56461058  0.87551787  0.10007215    -0.18700
C92         C  0.40654175  0.83287071  0.10299670    -0.18700
C93         C  0.40872142  0.81751371  0.93718698    -0.18700
H94         H  0.65764722  0.84856547  0.97253953     0.14200
H95         H  0.65584926  0.85820049  0.06235746     0.14200
H96         H  0.34489781  0.75531950  0.97994203     0.14200
H97         H  0.34298190  0.76438004  0.07044475     0.14200
H98         H  0.52641178  0.86896600  0.84459824     0.12500
H99         H  0.43787628  0.84789319  0.84683011     0.12500
H100        H  0.52084058  0.89945651  0.18679569     0.12500
H101        H  0.43281385  0.87531763  0.18875004     0.12500
H102        H  0.51846040  0.88095082  0.01503504     0.25700
H103        H  0.44261387  0.85818399  0.01731111     0.25700
C104        C  0.79662486  0.26758337  0.79106491     0.86000
C105        C  0.79218870  0.23809392  0.74677203    -0.54200
C106        C  0.78263904  0.19216972  0.75426547     0.09000
C107        C  0.77726806  0.17977127  0.80539710     0.19900
C108        C  0.75012479  0.26145565  0.81648486    -0.54900
C109        C  0.74022960  0.21518069  0.82460618     0.09100
C110        C  0.83193321  0.24108443  0.82042026    -0.54400
C111        C  0.82184046  0.19557447  0.82833126     0.09600
H112        H  0.79606015  0.25200338  0.71231649     0.14200
H113        H  0.76900119  0.14228421  0.81062206    -0.00100
H114        H  0.72833858  0.29080074  0.82881663     0.14500
H115        H  0.86190594  0.25771234  0.83518169     0.14300
N116        N  0.81269341  0.99165842  0.43790223    -0.37000
N117        N  0.79044663  0.05996443  0.51316474    -0.57600
N118        N  0.78733319  0.98279264  0.57534518    -0.37000
N119        N  0.80258266  0.91447114  0.50011808    -0.57600
C120        C  0.80100161  0.03104037  0.41480416     0.26500
C121        C  0.80839710  0.95481586  0.40821879     0.26500
C122        C  0.77125155  0.01863229  0.60286147     0.26500
C123        C  0.77452267  0.94240727  0.59523918     0.26500
C124        C  0.80205219  0.08965821  0.47935559     0.35200
C125        C  0.79189307  0.08497627  0.55304414     0.35200
C126        C  0.81866841  0.88973570  0.46302933     0.35200
C127        C  0.80466703  0.88491216  0.53582177     0.35200
C128        C  0.78985348  0.01921058  0.36983939    -0.22300
C129        C  0.79414153  0.97115138  0.36579308    -0.22300
C130        C  0.74772364  0.00089297  0.64053494    -0.22300
C131        C  0.74986223  0.95272676  0.63580666    -0.22300
C132        C  0.80992410  0.13411756  0.49744724    -0.23400
C133        C  0.80409641  0.13101932  0.54436955    -0.23400
C134        C  0.83054181  0.84397603  0.47498694    -0.23400
C135        C  0.82165851  0.84091282  0.52145707    -0.23400
C136        C  0.80276343  0.07764081  0.43223167    -0.18700
C137        C  0.81795333  0.90690874  0.41798156    -0.18700
C138        C  0.78860254  0.89657330  0.58045790    -0.18700
C139        C  0.78040724  0.06669760  0.59663791    -0.18700
H140        H  0.77954256  0.04267837  0.34262127     0.14200
H141        H  0.78722124  0.95069255  0.33501034     0.14200
H142        H  0.73143439  0.02060399  0.66890450     0.14200
H143        H  0.73576162  0.92810519  0.66010875     0.14200
H144        H  0.81912707  0.16537251  0.47880549     0.12500
H145        H  0.80830317  0.15951740  0.56899545     0.12500
H146        H  0.84334032  0.81566026  0.45243279     0.12500
H147        H  0.82626384  0.80974622  0.54208828     0.12500
H148        H  0.82523973  0.99043626  0.47120530     0.25700
H149        H  0.80923421  0.98550965  0.54686525     0.25700
C150        C  0.81791486  0.25360185  0.21833987     0.86000
C151        C  0.84340070  0.21543079  0.18902045    -0.54200
C152        C  0.82799650  0.17092535  0.19532708     0.09000
C153        C  0.78865239  0.16844432  0.23130465     0.19900
C154        C  0.76657087  0.24767878  0.20783077    -0.54900
C155        C  0.75098263  0.20309314  0.21445036     0.09100
C156        C  0.82284122  0.23679076  0.26826306    -0.54400
C157        C  0.80725404  0.19250212  0.27459738     0.09600
H158        H  0.87147757  0.22315050  0.16513199     0.14200
H159        H  0.77680482  0.13213209  0.23744633    -0.00100
H160        H  0.74523462  0.27603991  0.19419621     0.14500
H161        H  0.83604065  0.25713477  0.29677094     0.14300
N162        N  0.43705255  0.16600072  0.03097621    -0.37000
N163        N  0.51155875  0.16991786  0.96323904    -0.57600
N164        N  0.57877738  0.16145957  0.03628859    -0.37000
N165        N  0.50358873  0.16413921  0.10499349    -0.57600
C166        C  0.41349105  0.17994930  0.99346063     0.26500
C167        C  0.40895541  0.17411494  0.06804875     0.26500
C168        C  0.60619626  0.17324084  0.00016566     0.26500
C169        C  0.60198701  0.17163465  0.07511623     0.26500
C170        C  0.47573763  0.16589274  0.93449070     0.35200
C171        C  0.55007607  0.16177608  0.93737422     0.35200
C172        C  0.46488518  0.15792266  0.13060445     0.35200
C173        C  0.53950960  0.15861086  0.13363333     0.35200
C174        C  0.36960467  0.19630978  0.00683762    -0.22300
C175        C  0.36680240  0.19280606  0.05381014    -0.22300
C176        C  0.64761760  0.19015667  0.01621462    -0.22300
C177        C  0.64504995  0.18901651  0.06339307    -0.22300
C178        C  0.49146314  0.15548331  0.89003805    -0.23400
C179        C  0.53874275  0.15244299  0.89194733    -0.23400
C180        C  0.47619911  0.14879741  0.17587750    -0.23400
C181        C  0.52362984  0.14947793  0.17784745    -0.23400
C182        C  0.42947704  0.17588937  0.94726253    -0.18700
C183        C  0.41949916  0.16393161  0.11434917    -0.18700
C184        C  0.58616235  0.16490306  0.12097056    -0.18700
C185        C  0.59515224  0.16873331  0.95303670    -0.18700
H186        H  0.34208162  0.20910389  0.98517577     0.14200
H187        H  0.33694100  0.20301858  0.07500436     0.14200
H188        H  0.67661125  0.20261165  0.99614552     0.14200
H189        H  0.67180778  0.20035742  0.08641063     0.14200
H190        H  0.47114463  0.15138878  0.85932735     0.12500
H191        H  0.56217554  0.14562087  0.86298215     0.12500
H192        H  0.45272261  0.14320035  0.20462079     0.12500
H193        H  0.54405752  0.14439332  0.20836673     0.12500
H194        H  0.46946189  0.14958430  0.03118714     0.25700
H195        H  0.54680633  0.14579737  0.03450729     0.25700
C196        C  0.22660547  0.80406726  0.74094874     0.86000
C197        C  0.20749301  0.75438491  0.73962390    -0.54200
C198        C  0.20094715  0.73546611  0.78215506     0.09000
C199        C  0.21561283  0.76760477  0.82221238     0.19900
C200        C  0.19365450  0.83253585  0.77347615    -0.54900
C201        C  0.18823254  0.81375683  0.81616039     0.09100
C202        C  0.27171278  0.79876819  0.76768350    -0.54400
C203        C  0.26557456  0.78013635  0.81023425     0.09600
H204        H  0.19877649  0.73638060  0.70776091     0.14200
H205        H  0.21100735  0.75262205  0.85707890    -0.00100
H206        H  0.17581059  0.86459766  0.76289513     0.14500
H207        H  0.30518203  0.81088635  0.75639636     0.14300
N208        N  0.00399882  0.57133674  0.81859116    -0.37000
N209        N  0.07192711  0.49345005  0.81682809    -0.57600
N210        N  0.99634318  0.42944587  0.80427156    -0.37000
N211        N  0.92856982  0.50746728  0.81393687    -0.57600
C212        C  0.04298162  0.59346768  0.82984461     0.26500
C213        C  0.96804185  0.60092471  0.82962590     0.26500
C214        C  0.03151582  0.39899002  0.81364058     0.26500
C215        C  0.95653401  0.40660805  0.81153802     0.26500
C216        C  0.10047634  0.52957021  0.80974233     0.35200
C217        C  0.09626114  0.45388557  0.80479856     0.35200
C218        C  0.90474215  0.54825355  0.80804539     0.35200
C219        C  0.90048154  0.47302782  0.80036511     0.35200
C220        C  0.03180955  0.63772812  0.84844827    -0.22300
C221        C  0.98434070  0.64243746  0.84831216    -0.22300
C222        C  0.01387536  0.35616625  0.82686003    -0.22300
C223        C  0.96645935  0.36096465  0.82549243    -0.22300
C224        C  0.14344977  0.51290690  0.79391953    -0.23400
C225        C  0.14085929  0.46470231  0.79109332    -0.23400
C226        C  0.86097856  0.53971479  0.79158198    -0.23400
C227        C  0.85832734  0.49182087  0.78651758    -0.23400
C228        C  0.08820712  0.57725512  0.81810387    -0.18700
C229        C  0.92147535  0.59292500  0.81917239    -0.18700
C230        C  0.91168994  0.42478476  0.80259002    -0.18700
C231        C  0.07901653  0.40808334  0.80783546    -0.18700
H232        H  0.05555016  0.66437306  0.85953255     0.14200
H233        H  0.96422004  0.67335717  0.85940989     0.14200
H234        H  0.03315854  0.32461345  0.83606869     0.14200
H235        H  0.94203802  0.33381150  0.83342476     0.14200
H236        H  0.17346605  0.53327201  0.78531648     0.12500
H237        H  0.16838592  0.44045592  0.77976546     0.12500
H238        H  0.83386198  0.56526214  0.78398677     0.12500
H239        H  0.82873495  0.47304154  0.77418476     0.12500
H240        H  0.00252069  0.53976848  0.80033517     0.25700
H241        H  0.99926986  0.46278745  0.79051895     0.25700
C242        C  0.27311671  0.20008984  0.82905959     0.86000
C243        C  0.24744224  0.24819474  0.82936364    -0.54200
C244        C  0.20648254  0.24820384  0.80644113     0.09000
C245        C  0.19549202  0.19996825  0.78459536     0.19900
C246        C  0.23712061  0.16614775  0.84842976    -0.54900
C247        C  0.19675480  0.16576706  0.82486592     0.09100
C248        C  0.27881601  0.18681164  0.77807514    -0.54400
C249        C  0.23832373  0.18629320  0.75448720     0.09600
H250        H  0.25947916  0.27946128  0.84661531     0.14200
H251        H  0.16195933  0.19900309  0.76675574    -0.00100
H252        H  0.24328097  0.14405267  0.87805180     0.14500
H253        H  0.31243114  0.17833310  0.76247543     0.14300
N254        N  0.21148297  0.00543160  0.57035073    -0.37000
N255        N  0.19131385  0.07859770  0.50432013    -0.57600
N256        N  0.18002866  0.00456391  0.43636081    -0.37000
N257        N  0.19429777  0.93202761  0.50335836    -0.57600
C258        C  0.20270039  0.04371925  0.59742764     0.26500
C259        C  0.20520469  0.96738528  0.59684798     0.26500
C260        C  0.16642190  0.04270966  0.41262062     0.26500
C261        C  0.16613518  0.96632925  0.41274222     0.26500
C262        C  0.20779833  0.10534022  0.53869203     0.35200
C263        C  0.19384577  0.10461940  0.46607110     0.35200
C264        C  0.21353081  0.90596685  0.53648160     0.35200
C265        C  0.19680383  0.90527514  0.46485391     0.35200
C266        C  0.19057920  0.02992169  0.64159125    -0.22300
C267        C  0.19222535  0.98151847  0.64123488    -0.22300
C268        C  0.14333370  0.02866319  0.37338479    -0.22300
C269        C  0.14304476  0.98029842  0.37352490    -0.22300
C270        C  0.21989200  0.14915795  0.52267919    -0.23400
C271        C  0.21104366  0.14868615  0.47625357    -0.23400
C272        C  0.22769843  0.86200341  0.51944519    -0.23400
C273        C  0.21704743  0.86154977  0.47357344    -0.23400
C274        C  0.21010518  0.09054838  0.58443795    -0.18700
C275        C  0.21432301  0.92051792  0.58253632    -0.18700
C276        C  0.17909437  0.91952839  0.42263226    -0.18700
C277        C  0.17930677  0.08919087  0.42262115    -0.18700
H278        H  0.18233162  0.05248329  0.67117151     0.14200
H279        H  0.18537967  0.95928849  0.67043144     0.14200
H280        H  0.12956943  0.05084735  0.34661700     0.14200
H281        H  0.12912627  0.95797723  0.34683048     0.14200
H282        H  0.23361148  0.17821305  0.54231663     0.12500
H283        H  0.21647040  0.17738308  0.45277683     0.12500
H284        H  0.24355435  0.83333597  0.53819541     0.12500
H285        H  0.22317023  0.83240970  0.44955558     0.12500
H286        H  0.22483696  0.00531499  0.53685184     0.25700
H287        H  0.20165780  0.00459120  0.46443646     0.25700
C288        C  0.17708814  0.25394245  0.20069271     0.86000
C289        C  0.16966304  0.23560855  0.24978461    -0.54200
C290        C  0.18491652  0.19035178  0.25510894     0.09000
C291        C  0.20625071  0.16709059  0.21139677     0.19900
C292        C  0.22911695  0.24640691  0.19129477    -0.54900
C293        C  0.24446279  0.20082404  0.19689176     0.09100
C294        C  0.15379222  0.21788282  0.16960627    -0.54400
C295        C  0.16906994  0.17251673  0.17482447     0.09600
H296        H  0.15631363  0.25617870  0.27895818     0.14200
H297        H  0.21820475  0.13000491  0.21602623    -0.00100
H298        H  0.25136939  0.27432833  0.17979011     0.14500
H299        H  0.12619335  0.22765357  0.14638164     0.14300
C300        C  0.17253255  0.74587015  0.20287569     0.86000
C301        C  0.14954281  0.78410287  0.17363894    -0.54200
C302        C  0.16621914  0.82801192  0.18066492     0.09000
C303        C  0.20408282  0.82994870  0.21636567     0.19900
C304        C  0.22457047  0.74935382  0.19250434    -0.54900
C305        C  0.24089532  0.79371511  0.19909307     0.09100
C306        C  0.16675045  0.76392214  0.25289376    -0.54400
C307        C  0.18324786  0.80783187  0.25941475     0.09600
H308        H  0.12209264  0.77696017  0.14955360     0.14200
H309        H  0.21700215  0.86604297  0.22223508    -0.00100
H310        H  0.24570703  0.72024616  0.17839731     0.14500
H311        H  0.15343271  0.74404169  0.28153433     0.14300
N312        N  0.99080285  0.43346203  0.14936642    -0.37000
N313        N  0.06200921  0.50206764  0.13670380    -0.57600
N314        N  0.98791714  0.57463677  0.14589557    -0.37000
N315        N  0.91675383  0.50567270  0.15068491    -0.57600
C316        C  0.02796046  0.40554490  0.13837980     0.26500
C317        C  0.95294626  0.40705786  0.14527468     0.26500
C318        C  0.02489582  0.60008758  0.13425134     0.26500
C319        C  0.94985194  0.60222266  0.13985844     0.26500
C320        C  0.08869669  0.46445064  0.14762182     0.35200
C321        C  0.08713920  0.54000246  0.14668825     0.35200
C322        C  0.89283899  0.46856456  0.16556066     0.35200
C323        C  0.89102300  0.54448926  0.16227102     0.35200
C324        C  0.01370120  0.36073868  0.12681494    -0.22300
C325        C  0.96622695  0.36165403  0.13113319    -0.22300
C326        C  0.01040572  0.64453247  0.12048115    -0.22300
C327        C  0.96286136  0.64582189  0.12379114    -0.22300
C328        C  0.13149704  0.47832216  0.16287716    -0.23400
C329        C  0.13048456  0.52650164  0.16237986    -0.23400
C330        C  0.85105618  0.48368828  0.18558022    -0.23400
C331        C  0.84989010  0.53203512  0.18343742    -0.23400
C332        C  0.07425956  0.41780976  0.14509387    -0.18700
C333        C  0.90790199  0.42125494  0.16012486    -0.18700
C334        C  0.90448463  0.59087474  0.15368274    -0.18700
C335        C  0.07110222  0.58670040  0.14268295    -0.18700
H336        H  0.03541874  0.33017453  0.11804652     0.14200
H337        H  0.94427293  0.33173071  0.12624001     0.14200
H338        H  0.03201775  0.67351595  0.11082472     0.14200
H339        H  0.94053356  0.67600896  0.11698708     0.14200
H340        H  0.15996002  0.45615191  0.17424338     0.12500
H341        H  0.15810954  0.54898697  0.17322500     0.12500
H342        H  0.82437321  0.46218789  0.20036711     0.12500
H343        H  0.82230291  0.55531767  0.19646941     0.12500
H344        H  0.99154667  0.46693125  0.16392747     0.25700
H345        H  0.98921715  0.54232378  0.16187946     0.25700
C346        C  0.11975122  0.67791525  0.22012269    -0.13800
C347        C  0.15272025  0.69873771  0.19115282     0.08400
C348        C  0.16085210  0.67970548  0.14646810    -0.13800
C349        C  0.13522003  0.64217159  0.13049529    -0.13800
C350        C  0.10106061  0.62375631  0.15898814     0.08400
C351        C  0.09429693  0.64064674  0.20407267    -0.13800
H352        H  0.11076431  0.69156655  0.25401515     0.12300
H353        H  0.18524952  0.69564934  0.12304859     0.12300
H354        H  0.14070100  0.62870886  0.09564837     0.12300
H355        H  0.06796735  0.62593788  0.22626251     0.12300
C356        C  0.13868682  0.35884982  0.13051895    -0.13800
C357        C  0.10619294  0.38058664  0.16055953     0.08400
C358        C  0.10263754  0.36638312  0.20629952    -0.13800
C359        C  0.12865670  0.32807663  0.22128698    -0.13800
C360        C  0.15861108  0.30297210  0.19040258     0.08400
C361        C  0.16490544  0.32026449  0.14543892    -0.13800
H362        H  0.14213060  0.37032084  0.09522919     0.12300
H363        H  0.07809915  0.38388154  0.22992011     0.12300
H364        H  0.12223373  0.31722173  0.25611871     0.12300
H365        H  0.18772351  0.30175490  0.12089700     0.12300
C366        C  0.22258309  0.85535667  0.31746634    -0.13800
C367        C  0.18308089  0.83156006  0.30416602     0.08400
C368        C  0.14303637  0.83309019  0.33220127    -0.13800
C369        C  0.14193975  0.86044532  0.37242182    -0.13800
C370        C  0.18094785  0.88582644  0.38431337     0.08400
C371        C  0.22150029  0.88247333  0.35748530    -0.13800
H372        H  0.25390232  0.85374325  0.29639443     0.12300
H373        H  0.11224397  0.81494322  0.32193790     0.12300
H374        H  0.11048702  0.86333662  0.39320849     0.12300
H375        H  0.25168975  0.90211585  0.36687652     0.12300
C376        C  0.22210857  0.11765124  0.35512607    -0.13800
C377        C  0.18257957  0.12093876  0.38360666     0.08400
C378        C  0.14436430  0.14876136  0.37114435    -0.13800
C379        C  0.14521497  0.17214153  0.32931860    -0.13800
C380        C  0.18420978  0.16742811  0.29990453     0.08400
C381        C  0.22291687  0.14079478  0.31335775    -0.13800
H382        H  0.25156236  0.09573098  0.36456467     0.12300
H383        H  0.11344981  0.15064112  0.39278537     0.12300
H384        H  0.11497963  0.19250966  0.31921976     0.12300
H385        H  0.25358701  0.13761951  0.29144933     0.12300
C386        C  0.26250239  0.11424316  0.64615795    -0.13800
C387        C  0.22251212  0.12383586  0.62117590     0.08400
C388        C  0.19095402  0.15898596  0.63661033    -0.13800
C389        C  0.19767736  0.18186995  0.67878930    -0.13800
C390        C  0.23561523  0.16921291  0.70612849     0.08400
C391        C  0.26884531  0.13635881  0.68846326    -0.13800
H392        H  0.28693165  0.08680541  0.63456415     0.12300
H393        H  0.15984300  0.16652404  0.61750501     0.12300
H394        H  0.17216137  0.20797333  0.69057176     0.12300
H395        H  0.29818113  0.12495190  0.70841087     0.12300
C396        C  0.14249377  0.36113607  0.84321298    -0.13800
C397        C  0.11236513  0.36776970  0.80655866     0.08400
C398        C  0.11343458  0.33562403  0.76937321    -0.13800
C399        C  0.14443503  0.29704843  0.76893975    -0.13800
C400        C  0.17449248  0.28991892  0.80588875     0.08400
C401        C  0.17304935  0.32242038  0.84308264    -0.13800
H402        H  0.14170362  0.38555118  0.87230453     0.12300
H403        H  0.09031877  0.34052346  0.74076021     0.12300
H404        H  0.14501104  0.27319664  0.73953331     0.12300
H405        H  0.19467779  0.31753359  0.87276398     0.12300
C406        C  0.18383388  0.85713784  0.63058500    -0.13800
C407        C  0.22092585  0.88484962  0.61771163     0.08400
C408        C  0.26263528  0.88186469  0.64113635    -0.13800
C409        C  0.26656738  0.85294207  0.67919797    -0.13800
C410        C  0.22840338  0.82701335  0.69440379     0.08400
C411        C  0.18744808  0.82860688  0.66880116    -0.13800
H412        H  0.15135499  0.85965356  0.61259295     0.12300
H413        H  0.29135352  0.90353339  0.63114219     0.12300
H414        H  0.29853746  0.85386744  0.69764657     0.12300
H415        H  0.15722826  0.80979531  0.68005112     0.12300
C416        C  0.15921386  0.62296903  0.83502517    -0.13800
C417        C  0.12167594  0.61359190  0.80671638     0.08400
C418        C  0.11286375  0.64168233  0.76852584    -0.13800
C419        C  0.13980291  0.68030062  0.75978130    -0.13800
C420        C  0.17641186  0.69122459  0.78888503     0.08400
C421        C  0.18660066  0.66180520  0.82608723    -0.13800
H422        H  0.16621184  0.60130019  0.86462371     0.12300
H423        H  0.08375304  0.63473583  0.74659674     0.12300
H424        H  0.13040768  0.70283320  0.73149389     0.12300
H425        H  0.21502306  0.66932346  0.84864309     0.12300
C426        C  0.37297423  0.20557122  0.17570714    -0.13800
C427        C  0.38029480  0.16538631  0.14766774     0.08400
C428        C  0.34506092  0.13259815  0.14319173    -0.13800
C429        C  0.30133558  0.14247017  0.16250789    -0.13800
C430        C  0.29257287  0.18523129  0.18637366     0.08400
C431        C  0.32929900  0.21541293  0.19507720    -0.13800
H432        H  0.39982591  0.23127476  0.17919919     0.12300
H433        H  0.35021292  0.10167907  0.12115984     0.12300
H434        H  0.27358795  0.11868852  0.15520847     0.12300
H435        H  0.32350389  0.24805937  0.21436043     0.12300
C436        C  0.37612921  0.14443394  0.88892534    -0.13800
C437        C  0.39557218  0.18328341  0.91061263     0.08400
C438        C  0.37950859  0.22890018  0.90076218    -0.13800
C439        C  0.34120595  0.23543172  0.87281144    -0.13800
C440        C  0.31866130  0.19619803  0.85414446     0.08400
C441        C  0.33857154  0.15092827  0.86017340    -0.13800
H442        H  0.38884656  0.10905002  0.89578288     0.12300
H443        H  0.39512803  0.25923360  0.91673546     0.12300
H444        H  0.32947586  0.27114575  0.86700932     0.12300
H445        H  0.32321402  0.12018108  0.84472281     0.12300
C446        C  0.87909197  0.37173437  0.22302680    -0.13800
C447        C  0.87761433  0.38412151  0.17661105     0.08400
C448        C  0.85221603  0.35758162  0.14556813    -0.13800
C449        C  0.83094003  0.31688908  0.16036424    -0.13800
C450        C  0.83486646  0.30210343  0.20636167     0.08400
C451        C  0.85771727  0.33117582  0.23798034    -0.13800
H452        H  0.89876157  0.39232897  0.24720031     0.12300
H453        H  0.85110590  0.36691906  0.10954204     0.12300
H454        H  0.81337648  0.29541500  0.13527324     0.12300
H455        H  0.86143634  0.32231024  0.27368719     0.12300
C456        C  0.66701014  0.22256163  0.20210059    -0.13800
C457        C  0.70378442  0.18910146  0.20161146     0.08400
C458        C  0.69655909  0.14380910  0.18328421    -0.13800
C459        C  0.65527818  0.13392374  0.16134182    -0.13800
C460        C  0.62085281  0.16916546  0.15745518     0.08400
C461        C  0.62586628  0.21272065  0.17989605    -0.13800
H462        H  0.67098582  0.25732338  0.21716555     0.12300
H463        H  0.72405466  0.11725521  0.18206673     0.12300
H464        H  0.65188898  0.10029082  0.14371517     0.12300
H465        H  0.59960052  0.24034132  0.17687380     0.12300
C466        C  0.84689367  0.12746135  0.37860604    -0.13800
C467        C  0.80429013  0.11547547  0.39833180     0.08400
C468        C  0.76289943  0.13317043  0.38017194    -0.13800
C469        C  0.76402617  0.16000553  0.34042682    -0.13800
C470        C  0.80653382  0.17009701  0.31948558     0.08400
C471        C  0.84802506  0.15518305  0.33940754    -0.13800
H472        H  0.87894813  0.11328993  0.39213097     0.12300
H473        H  0.72987081  0.12343654  0.39490221     0.12300
H474        H  0.73185003  0.17145408  0.32503750     0.12300
H475        H  0.88097356  0.16269220  0.32312559     0.12300
C476        C  0.80704463  0.35054551  0.82041237    -0.13800
C477        C  0.81324342  0.31701783  0.78434709     0.08400
C478        C  0.84892514  0.32360672  0.75145384    -0.13800
C479        C  0.87921392  0.36038743  0.75620649    -0.13800
C480        C  0.87493196  0.39105056  0.79412308     0.08400
C481        C  0.83765255  0.38742374  0.82515715    -0.13800
H482        H  0.78157878  0.34586361  0.84756910     0.12300
H483        H  0.85683810  0.29776036  0.72454513     0.12300
H484        H  0.90796804  0.36307586  0.73201019     0.12300
H485        H  0.83414871  0.41120092  0.85464578     0.12300
C486        C  0.62590171  0.21777342  0.88964816    -0.13800
C487        C  0.63122834  0.17850716  0.91803064     0.08400
C488        C  0.67118867  0.14984887  0.91390829    -0.13800
C489        C  0.70616004  0.16119758  0.88266086    -0.13800
C490        C  0.70130869  0.20099418  0.85461447     0.08400
C491        C  0.66044923  0.22868321  0.85786505    -0.13800
H492        H  0.59512502  0.24026367  0.89256231     0.12300
H493        H  0.67573496  0.11952164  0.93574399     0.12300
H494        H  0.73761311  0.13974639  0.88198603     0.12300
H495        H  0.65536680  0.25911389  0.83633235     0.12300
C496        C  0.80519427  0.11624243  0.71534053    -0.13800
C497        C  0.77861911  0.15813384  0.71592736     0.08400
C498        C  0.75103099  0.16925445  0.67808276    -0.13800
C499        C  0.75054593  0.13909359  0.63968295    -0.13800
C500        C  0.77880606  0.09818773  0.63805000     0.08400
C501        C  0.80572087  0.08673041  0.67642188    -0.13800
H502        H  0.82697264  0.10741128  0.74411354     0.12300
H503        H  0.73011603  0.20145993  0.67820899     0.12300
H504        H  0.72881952  0.14804742  0.61090872     0.12300
H505        H  0.82761327  0.05518184  0.67590726     0.12300
C506        C  0.33233522  0.86016296  0.13706571    -0.13800
C507        C  0.36935541  0.82765071  0.13719130     0.08400
C508        C  0.36655632  0.78642066  0.16288415    -0.13800
C509        C  0.32530341  0.77625438  0.18581121    -0.13800
C510        C  0.28698700  0.80742395  0.18307558     0.08400
C511        C  0.29134949  0.85017391  0.15995178    -0.13800
H512        H  0.33414120  0.89166244  0.11653467     0.12300
H513        H  0.39503163  0.76087505  0.16248402     0.12300
H514        H  0.32262778  0.74324072  0.20377403     0.12300
H515        H  0.26212860  0.87434853  0.15643454     0.12300
C516        C  0.32759415  0.82575442  0.91216114    -0.13800
C517        C  0.37216962  0.80632917  0.90441222     0.08400
C518        C  0.38081749  0.77510756  0.86714491    -0.13800
C519        C  0.34545573  0.76491741  0.83686633    -0.13800
C520        C  0.30107653  0.78452893  0.84483005     0.08400
C521        C  0.29204539  0.81431085  0.88291450    -0.13800
H522        H  0.32047177  0.84983398  0.94090064     0.12300
H523        H  0.41491858  0.75926467  0.86128256     0.12300
H524        H  0.35267309  0.74233223  0.80704040     0.12300
H525        H  0.25806574  0.83044896  0.88878150     0.12300
C526        C  0.84176183  0.85546379  0.29992669    -0.13800
C527        C  0.80140684  0.82977305  0.29410126     0.08400
C528        C  0.77273328  0.82099618  0.33232718    -0.13800
C529        C  0.78118972  0.84244730  0.37463652    -0.13800
C530        C  0.81849359  0.87268425  0.37910130     0.08400
C531        C  0.85031473  0.87690720  0.34241699    -0.13800
H532        H  0.86423930  0.86267924  0.27077656     0.12300
H533        H  0.74188559  0.80047312  0.32857276     0.12300
H534        H  0.75633768  0.83885586  0.40265548     0.12300
H535        H  0.87919552  0.90028472  0.34547423     0.12300
C536        C  0.87861575  0.65822404  0.20384941    -0.13800
C537        C  0.87167337  0.63035678  0.16447473     0.08400
C538        C  0.83595482  0.64220398  0.13441944    -0.13800
C539        C  0.80880919  0.68308119  0.14264298    -0.13800
C540        C  0.81718010  0.71231777  0.18109855     0.08400
C541        C  0.85143525  0.69869809  0.21224150    -0.13800
H542        H  0.90593200  0.64915799  0.22747635     0.12300
H543        H  0.83036456  0.62086941  0.10384345     0.12300
H544        H  0.78282366  0.69282687  0.11788089     0.12300
H545        H  0.85780064  0.71969660  0.24282922     0.12300
C546        C  0.64892358  0.80024948  0.16129157    -0.13800
C547        C  0.68250854  0.83330961  0.17231227     0.08400
C548        C  0.67030671  0.88178479  0.17119544    -0.13800
C549        C  0.62892994  0.89677478  0.15161925    -0.13800
C550        C  0.59842570  0.86329799  0.13535404     0.08400
C551        C  0.60698327  0.81529469  0.14319299    -0.13800
H552        H  0.65510524  0.76284848  0.16479898     0.12300
H553        H  0.69458292  0.90811042  0.18187833     0.12300
H554        H  0.62244312  0.93396313  0.14589804     0.12300
H555        H  0.58306456  0.78921882  0.13108870     0.12300
C556        C  0.66321169  0.86145680  0.84307693    -0.13800
C557        C  0.68192798  0.81512542  0.84543063     0.08400
C558        C  0.65802105  0.78177342  0.87137876    -0.13800
C559        C  0.61907222  0.79560009  0.89750436    -0.13800
C560        C  0.60359226  0.84277792  0.89835267     0.08400
C561        C  0.62475496  0.87541608  0.86997625    -0.13800
H562        H  0.68030837  0.88767125  0.82256725     0.12300
H563        H  0.66958054  0.74549102  0.87327360     0.12300
H564        H  0.60233950  0.77003466  0.91911077     0.12300
H565        H  0.61271590  0.91186500  0.87012874     0.12300
C566        C  0.74630962  0.81288897  0.66830865    -0.13800
C567        C  0.78050063  0.81871089  0.70167843     0.08400
C568        C  0.82151965  0.84143911  0.68986268    -0.13800
C569        C  0.82635159  0.86200731  0.64711447    -0.13800
C570        C  0.79009783  0.86058785  0.61598828     0.08400
C571        C  0.75102355  0.83404903  0.62549479    -0.13800
H572        H  0.71479252  0.79464467  0.67630123     0.12300
H573        H  0.84821711  0.84736617  0.71478053     0.12300
H574        H  0.85634023  0.88309495  0.64008291     0.12300
H575        H  0.72269688  0.83323975  0.60156639     0.12300
C576        C  0.85286340  0.69524089  0.77270569    -0.13800
C577        C  0.82529405  0.70898714  0.81112499     0.08400
C578        C  0.82927604  0.68407139  0.85237531    -0.13800
C579        C  0.86104970  0.64643363  0.85531048    -0.13800
C580        C  0.88908232  0.63360120  0.81710910     0.08400
C581        C  0.88464455  0.65781234  0.77572156    -0.13800
H582        H  0.84983600  0.71342975  0.74031696     0.12300
H583        H  0.80875752  0.69444792  0.88258076     0.12300
H584        H  0.86402644  0.62747468  0.88727523     0.12300
H585        H  0.90562606  0.64747170  0.74578523     0.12300
C586        C  0.85505611  0.87137297  0.87819836    -0.17100
C587        C  0.84673791  0.86330860  0.83366595    -0.32000
H588        H  0.83296444  0.85622755  0.90448856     0.12100
H589        H  0.87159439  0.87333667  0.80730890     0.12700
C590        C  0.85286604  0.12088183  0.85890705    -0.16900
C591        C  0.84953747  0.16784787  0.86076669    -0.32000
H592        H  0.83511017  0.10107068  0.83259044     0.12100
H593        H  0.87086543  0.18714616  0.88473687     0.12700
C594        C  0.15874998  0.83566483  0.85324816    -0.16900
C595        C  0.14992881  0.88225072  0.85450616    -0.32000
H596        H  0.14304453  0.81301957  0.87864439     0.12100
H597        H  0.16646923  0.90492703  0.82972774     0.12700
C598        C  0.85147680  0.86473414  0.15121266    -0.16900
C599        C  0.85692711  0.86978030  0.10566055    -0.32000
H600        H  0.87796133  0.87656919  0.17452862     0.12100
H601        H  0.83303420  0.85343117  0.08212718     0.12700
C602        C  0.14890742  0.86943231  0.15568438    -0.16900
C603        C  0.14112169  0.86531492  0.11057668    -0.32000
H604        H  0.13932637  0.90144746  0.17487497     0.12100
H605        H  0.15255357  0.83332722  0.09214675     0.12700
C606        C  0.85747415  0.13445030  0.12374166    -0.16900
C607        C  0.84783721  0.12987767  0.16885056    -0.32000
H608        H  0.84603551  0.16641946  0.10666817     0.12100
H609        H  0.85700462  0.09775399  0.18675228     0.12700
C610        C  0.14481232  0.13087344  0.88193629    -0.16900
C611        C  0.15693183  0.13645183  0.83763918    -0.32000
H612        H  0.16410573  0.14851890  0.90868221     0.12100
H613        H  0.13486249  0.12345932  0.81057212     0.12700
C614        C  0.13262202  0.13890655  0.10706303    -0.16900
C615        C  0.14844379  0.13264794  0.14973323    -0.32000
H616        H  0.14048717  0.17104480  0.08893431     0.12100
H617        H  0.14271923  0.10000829  0.16777349     0.12700
loop_ 
_geom_bond_atom_site_label_1 
_geom_bond_atom_site_label_2 
_geom_bond_distance 
_geom_bond_site_symmetry_2 
_ccdc_geom_bond_type 
N1            N2   1.323       .  A
N1            N7   1.315       .  A
N1          Mn30   2.203   1_445  S
N2            C9   1.356       .  A
N3            N5   1.317       .  A
N3            N4   1.316       .  A
N3          Mn19   2.191   1_554  S
N4           C10   1.348       .  A
N5            N6   1.325       .  A
N5          Mn30   2.220   1_545  S
N6           C10   1.357       .  A
N7            N8   1.315       .  A
N7          Mn19   2.189   1_454  S
N8            C9   1.347       .  A
C9          C614   1.464       .  S
C10         C606   1.471       .  S
N11          N17   1.314       .  A
N11          N12   1.318       .  A
N11         Mn41   2.175       .  S
N12          C20   1.347       .  A
N13          N14   1.316       .  A
N13          N15   1.314       .  A
N13         Mn19   2.179   1_455  S
N14          C21   1.346       .  A
N15          N16   1.325       .  A
N15         Mn41   2.219   1_455  S
N16          C21   1.358       .  A
N17          N18   1.319       .  A
N17         Mn19   2.206       .  S
N18          C20   1.356       .  A
Mn19        Cl43   2.516   1_545  S
C20         C590   1.465       .  S
C21         C610   1.469       .  S
N22          N23   1.321       .  A
N22          N28   1.316       .  A
N22         Mn30   2.200       .  S
N23          C31   1.353       .  A
N24          N26   1.315       .  A
N24          N25   1.314       .  A
N24         Mn42   2.170   1_554  S
N25          C32   1.344       .  A
N26          N27   1.323       .  A
N26         Mn30   2.212   1_455  S
N27          C32   1.356       .  A
N28          N29   1.319       .  A
N28         Mn42   2.204   1_654  S
N29          C31   1.350       .  A
Mn30        Cl43   2.570   1_554  S
C31         C599   1.466       .  S
C32         C603   1.461       .  S
N33          N34   1.315       .  A
N33          N39   1.314       .  A
N33         Mn41   2.175   1_465  S
N34          C44   1.346       .  A
N35          N36   1.315       .  A
N35          N37   1.314       .  A
N35         Mn42   2.168   1_655  S
N36          C45   1.345       .  A
N37          N38   1.323       .  A
N37         Mn41   2.212   1_565  S
N38          C45   1.355       .  A
N39          N40   1.323       .  A
N39         Mn42   2.206       .  S
N40          C44   1.355       .  A
Mn41        Cl43   2.557   1_545  S
Mn42        Cl43   2.520   1_455  S
C44         C595   1.462       .  S
C45         C586   1.459       .  S
C46          C47   1.546       .  S
C46          C52   1.533       .  S
C46          C50   1.536       .  S
C46         C557   1.516       .  S
C47          H54   1.081       .  S
C47          C48   1.367       .  D
C48         C577   1.474       .  S
C48          C49   1.532       .  S
C49          C53   1.532       .  S
C49          C51   1.526       .  S
C49          H55   1.109       .  S
C50          H56   1.087       .  S
C50          C51   1.359       .  D
C51         C587   1.473       .  S
C52          H57   1.086       .  S
C52          C53   1.366       .  D
C53         C567   1.472       .  S
C58          C59   1.539       .  S
C58          C64   1.526       .  S
C58          C62   1.546       .  S
C58         C547   1.513       .  S
C59          H66   1.087       .  S
C59          C60   1.360       .  D
C60          C61   1.529       .  S
C60         C598   1.473       .  S
C61          C65   1.530       .  S
C61          C63   1.542       .  S
C61          H67   1.110       .  S
C62          H68   1.082       .  S
C62          C63   1.370       .  D
C63         C540   1.481       .  S
C64          H69   1.087       .  S
C64          C65   1.362       .  D
C65         C527   1.469       .  S
N70          C75   1.353       .  A
N70          C74   1.354   1_554  A
N70         H102   1.039       .  S
N71          C78   1.344       .  A
N71          C79   1.346       .  A
N72          C77   1.348       .  A
N72          C76   1.347   1_554  A
N72         H103   1.039       .  S
N73          C80   1.342       .  A
N73          C81   1.344       .  A
C74          C82   1.386       .  A
C74          C90   1.413       .  A
C75          C91   1.417       .  A
C75          C83   1.389       .  A
C76          C84   1.387   1_556  A
C76          C93   1.405       .  A
C77          C92   1.405       .  A
C77          C85   1.388       .  A
C78          C90   1.398       .  A
C78          C86   1.384       .  A
C79          C93   1.405       .  A
C79          C87   1.387       .  A
C80          C88   1.386       .  A
C80          C91   1.397       .  A
C81          C89   1.385       .  A
C81          C92   1.398       .  A
C82          C83   1.368   1_556  A
C82          H94   1.082       .  S
C83          H95   1.082       .  S
C84          C85   1.371       .  A
C84          H96   1.083   1_554  S
C85          H97   1.082       .  S
C86          C87   1.373       .  A
C86          H98   1.082       .  S
C87          H99   1.082       .  S
C88          C89   1.373       .  A
C88         H100   1.082       .  S
C89         H101   1.082       .  S
C90         C560   1.471       .  S
C91         C550   1.467       .  S
C92         C507   1.462       .  S
C93         C517   1.471       .  S
C104        C105   1.532       .  S
C104        C110   1.531       .  S
C104        C108   1.537       .  S
C104        C477   1.508       .  S
C105        H112   1.086       .  S
C105        C106   1.359       .  D
C106        C497   1.470       .  S
C106        C107   1.536       .  S
C107        C111   1.534       .  S
C107        C109   1.541       .  S
C107        H113   1.108       .  S
C108        H114   1.084       .  S
C108        C109   1.374       .  D
C109        C490   1.478       .  S
C110        H115   1.088       .  S
C110        C111   1.353       .  D
C111        C591   1.471       .  S
N116        C121   1.354       .  A
N116        C120   1.351   1_565  A
N116        H148   1.039       .  S
N117        C124   1.347       .  A
N117        C125   1.350       .  A
N118        C123   1.348       .  A
N118        C122   1.352   1_565  A
N118        H149   1.037       .  S
N119        C126   1.346       .  A
N119        C127   1.344       .  A
C120        C128   1.387       .  A
C120        C136   1.411       .  A
C121        C137   1.415       .  A
C121        C129   1.388       .  A
C122        C130   1.385       .  A
C122        C139   1.410       .  A
C123        C138   1.411       .  A
C123        C131   1.389       .  A
C124        C136   1.404       .  A
C124        C132   1.385       .  A
C125        C139   1.412       .  A
C125        C133   1.387       .  A
C126        C134   1.386       .  A
C126        C137   1.402       .  A
C127        C135   1.386       .  A
C127        C138   1.400       .  A
C128        C129   1.369   1_545  A
C128        H140   1.082       .  S
C129        H141   1.082       .  S
C130        C131   1.371   1_545  A
C130        H142   1.082       .  S
C131        H143   1.082       .  S
C132        C133   1.373       .  A
C132        H144   1.082       .  S
C133        H145   1.081       .  S
C134        C135   1.373       .  A
C134        H146   1.082       .  S
C135        H147   1.082       .  S
C136        C467   1.468       .  S
C137        C530   1.477       .  S
C138        C570   1.463       .  S
C139        C500   1.486       .  S
C150        C151   1.533       .  S
C150        C156   1.540       .  S
C150        C154   1.533       .  S
C150        C450   1.516       .  S
C151        H158   1.087       .  S
C151        C152   1.363       .  D
C152        C153   1.534       .  S
C152        C607   1.483       .  S
C153        C157   1.532       .  S
C153        C155   1.540       .  S
C153        H159   1.110       .  S
C154        H160   1.086       .  S
C154        C155   1.369       .  D
C155        C457   1.483       .  S
C156        H161   1.082       .  S
C156        C157   1.360       .  D
C157        C470   1.458       .  S
N162        C167   1.350       .  A
N162        C166   1.353   1_554  A
N162        H194   1.036       .  S
N163        C170   1.347       .  A
N163        C171   1.345       .  A
N164        C169   1.352       .  A
N164        C168   1.354       .  A
N164        H195   1.037       .  S
N165        C172   1.349       .  A
N165        C173   1.349       .  A
C166        C174   1.387   1_556  A
C166        C182   1.412       .  A
C167        C183   1.415       .  A
C167        C175   1.389       .  A
C168        C176   1.386       .  A
C168        C185   1.414   1_554  A
C169        C184   1.417       .  A
C169        C177   1.389       .  A
C170        C182   1.403       .  A
C170        C178   1.385       .  A
C171        C185   1.405       .  A
C171        C179   1.387       .  A
C172        C180   1.386       .  A
C172        C183   1.409       .  A
C173        C181   1.386       .  A
C173        C184   1.408       .  A
C174        C175   1.369       .  A
C174        H186   1.082   1_554  S
C175        H187   1.082       .  S
C176        C177   1.371       .  A
C176        H188   1.082   1_554  S
C177        H189   1.082       .  S
C178        C179   1.370       .  A
C178        H190   1.082       .  S
C179        H191   1.082       .  S
C180        C181   1.374       .  A
C180        H192   1.082       .  S
C181        H193   1.082       .  S
C182        C437   1.473       .  S
C183        C427   1.476       .  S
C184        C460   1.476       .  S
C185        C487   1.478       .  S
C196        C197   1.527       .  S
C196        C202   1.534       .  S
C196        C200   1.536       .  S
C196        C410   1.509       .  S
C197        H204   1.086       .  S
C197        C198   1.365       .  D
C198        C420   1.471       .  S
C198        C199   1.538       .  S
C199        C203   1.532       .  S
C199        C201   1.528       .  S
C199        H205   1.111       .  S
C200        H206   1.086       .  S
C200        C201   1.364       .  D
C201        C594   1.481       .  S
C202        H207   1.082       .  S
C202        C203   1.361       .  D
C203        C520   1.454       .  S
N208        C213   1.351   1_455  A
N208        C212   1.346       .  A
N208        H240   1.036       .  S
N209        C216   1.348       .  A
N209        C217   1.348       .  A
N210        C215   1.350       .  A
N210        C214   1.352   1_655  A
N210        H241   1.037       .  S
N211        C218   1.347       .  A
N211        C219   1.345       .  A
C212        C220   1.388       .  A
C212        C228   1.410       .  A
C213        C229   1.408       .  A
C213        C221   1.386       .  A
C214        C222   1.387       .  A
C214        C231   1.411       .  A
C215        C230   1.413       .  A
C215        C223   1.388       .  A
C216        C228   1.407       .  A
C216        C224   1.387       .  A
C217        C231   1.407       .  A
C217        C225   1.386       .  A
C218        C226   1.386       .  A
C218        C229   1.403       .  A
C219        C227   1.386       .  A
C219        C230   1.402       .  A
C220        C221   1.376   1_455  A
C220        H232   1.083       .  S
C221        H233   1.082       .  S
C222        C223   1.376   1_455  A
C222        H234   1.082       .  S
C223        H235   1.083       .  S
C224        C225   1.373       .  A
C224        H236   1.082       .  S
C225        H237   1.082       .  S
C226        C227   1.369       .  A
C226        H238   1.082       .  S
C227        H239   1.082       .  S
C228        C417   1.469       .  S
C229        C580   1.471       .  S
C230        C480   1.469       .  S
C231        C397   1.477       .  S
C242        C243   1.537       .  S
C242        C248   1.526       .  S
C242        C246   1.540       .  S
C242        C440   1.518       .  S
C243        H250   1.080       .  S
C243        C244   1.368       .  D
C244        C400   1.485       .  S
C244        C245   1.542       .  S
C245        C249   1.541       .  S
C245        C247   1.531       .  S
C245        H251   1.108       .  S
C246        H252   1.086       .  S
C246        C247   1.363       .  D
C247        C611   1.482       .  S
C248        H253   1.085       .  S
C248        C249   1.366       .  D
C249        C390   1.481       .  S
N254        C259   1.349   1_545  A
N254        C258   1.347       .  A
N254        H286   1.040       .  S
N255        C262   1.345       .  A
N255        C263   1.344       .  A
N256        C261   1.348   1_545  A
N256        C260   1.346       .  A
N256        H287   1.035       .  S
N257        C264   1.342       .  A
N257        C265   1.341       .  A
C258        C266   1.387       .  A
C258        C274   1.407       .  A
C259        C275   1.405       .  A
C259        C267   1.386       .  A
C260        C268   1.388       .  A
C260        C277   1.407       .  A
C261        C276   1.406       .  A
C261        C269   1.387       .  A
C262        C274   1.401       .  A
C262        C270   1.385       .  A
C263        C277   1.403       .  A
C263        C271   1.387       .  A
C264        C272   1.385       .  A
C264        C275   1.393       .  A
C265        C273   1.387       .  A
C265        C276   1.398       .  A
C266        C267   1.373   1_545  A
C266        H278   1.083       .  S
C267        H279   1.082       .  S
C268        C269   1.373   1_545  A
C268        H280   1.082       .  S
C269        H281   1.082       .  S
C270        C271   1.375       .  A
C270        H282   1.082       .  S
C271        H283   1.082       .  S
C272        C273   1.371       .  A
C272        H284   1.082       .  S
C273        H285   1.082       .  S
C274        C387   1.468       .  S
C275        C407   1.460       .  S
C276        C370   1.455       .  S
C277        C377   1.461       .  S
C288        C289   1.537       .  S
C288        C294   1.530       .  S
C288        C292   1.533       .  S
C288        C360   1.514       .  S
C289        H296   1.081       .  S
C289        C290   1.359       .  D
C290        C380   1.463       .  S
C290        C291   1.534       .  S
C291        C295   1.530       .  S
C291        C293   1.537       .  S
C291        H297   1.110       .  S
C292        H298   1.086       .  S
C292        C293   1.370       .  D
C293        C430   1.475       .  S
C294        H299   1.087       .  S
C294        C295   1.362       .  D
C295        C615   1.479       .  S
C300        C301   1.533       .  S
C300        C306   1.537       .  S
C300        C304   1.535       .  S
C300        C347   1.504       .  S
C301        H308   1.087       .  S
C301        C302   1.361       .  D
C302        C303   1.521       .  S
C302        C602   1.472       .  S
C303        C307   1.528       .  S
C303        C305   1.534       .  S
C303        H309   1.111       .  S
C304        H310   1.086       .  S
C304        C305   1.367       .  D
C305        C510   1.467       .  S
C306        H311   1.082       .  S
C306        C307   1.357       .  D
C307        C367   1.453       .  S
N312        C317   1.347       .  A
N312        C316   1.350   1_655  A
N312        H344   1.034       .  S
N313        C320   1.347       .  A
N313        C321   1.344       .  A
N314        C319   1.350       .  A
N314        C318   1.346   1_655  A
N314        H345   1.034       .  S
N315        C322   1.347       .  A
N315        C323   1.349       .  A
C316        C324   1.385       .  A
C316        C332   1.407       .  A
C317        C333   1.412       .  A
C317        C325   1.389       .  A
C318        C326   1.386       .  A
C318        C335   1.406       .  A
C319        C334   1.411       .  A
C319        C327   1.387       .  A
C320        C332   1.399       .  A
C320        C328   1.385       .  A
C321        C335   1.400       .  A
C321        C329   1.388       .  A
C322        C330   1.387       .  A
C322        C333   1.407       .  A
C323        C331   1.385       .  A
C323        C334   1.407       .  A
C324        C325   1.376   1_455  A
C324        H336   1.083       .  S
C325        H337   1.082       .  S
C326        C327   1.376   1_455  A
C326        H338   1.083       .  S
C327        H339   1.082       .  S
C328        C329   1.367       .  A
C328        H340   1.083       .  S
C329        H341   1.082       .  S
C330        C331   1.374       .  A
C330        H342   1.082       .  S
C331        H343   1.082       .  S
C332        C357   1.466       .  S
C333        C447   1.467       .  S
C334        C537   1.476       .  S
C335        C350   1.457       .  S
C346        C347   1.407       .  A
C346        C351   1.383       .  A
C346        H352   1.077       .  S
C347        C348   1.411       .  A
C348        C349   1.391       .  A
C348        H353   1.083       .  S
C349        C350   1.394       .  A
C349        H354   1.083       .  S
C350        C351   1.395       .  A
C351        H355   1.084       .  S
C356        C357   1.396       .  A
C356        C361   1.395       .  A
C356        H362   1.083       .  S
C357        C358   1.396       .  A
C358        C359   1.386       .  A
C358        H363   1.084       .  S
C359        C360   1.408       .  A
C359        H364   1.076       .  S
C360        C361   1.411       .  A
C361        H365   1.083       .  S
C366        C367   1.398       .  A
C366        C371   1.383       .  A
C366        H372   1.083       .  S
C367        C368   1.403       .  A
C368        C369   1.391       .  A
C368        H373   1.083       .  S
C369        C370   1.398       .  A
C369        H374   1.083       .  S
C370        C371   1.397       .  A
C371        H375   1.084       .  S
C376        C377   1.399       .  A
C376        C381   1.387       .  A
C376        H382   1.084       .  S
C377        C378   1.398       .  A
C378        C379   1.392       .  A
C378        H383   1.083       .  S
C379        C380   1.405       .  A
C379        H384   1.083       .  S
C380        C381   1.399       .  A
C381        H385   1.083       .  S
C386        C387   1.398       .  A
C386        C391   1.387       .  A
C386        H392   1.084       .  S
C387        C388   1.398       .  A
C388        C389   1.395       .  A
C388        H393   1.083       .  S
C389        C390   1.407       .  A
C389        H394   1.080       .  S
C390        C391   1.407       .  A
C391        H395   1.081       .  S
C396        C397   1.398       .  A
C396        C401   1.393       .  A
C396        H402   1.083       .  S
C397        C398   1.402       .  A
C398        C399   1.397       .  A
C398        H403   1.083       .  S
C399        C400   1.406       .  A
C399        H404   1.081       .  S
C400        C401   1.408       .  A
C401        H405   1.082       .  S
C406        C407   1.395       .  A
C406        C411   1.387       .  A
C406        H412   1.084       .  S
C407        C408   1.396       .  A
C408        C409   1.391       .  A
C408        H413   1.084       .  S
C409        C410   1.410       .  A
C409        H414   1.077       .  S
C410        C411   1.409       .  A
C411        H415   1.083       .  S
C416        C417   1.401       .  A
C416        C421   1.398       .  A
C416        H422   1.083       .  S
C417        C418   1.398       .  A
C418        C419   1.384       .  A
C418        H423   1.084       .  S
C419        C420   1.403       .  A
C419        H424   1.082       .  S
C420        C421   1.406       .  A
C421        H425   1.083       .  S
C426        C427   1.400       .  A
C426        C431   1.393       .  A
C426        H432   1.083       .  S
C427        C428   1.403       .  A
C428        C429   1.394       .  A
C428        H433   1.083       .  S
C429        C430   1.403       .  A
C429        H434   1.083       .  S
C430        C431   1.404       .  A
C431        H435   1.083       .  S
C436        C437   1.396       .  A
C436        C441   1.391       .  A
C436        H442   1.083       .  S
C437        C438   1.400       .  A
C438        C439   1.394       .  A
C438        H443   1.083       .  S
C439        C440   1.410       .  A
C439        H444   1.077       .  S
C440        C441   1.409       .  A
C441        H445   1.083       .  S
C446        C447   1.398       .  A
C446        C451   1.392       .  A
C446        H452   1.084       .  S
C447        C448   1.395       .  A
C448        C449   1.392       .  A
C448        H453   1.083       .  S
C449        C450   1.411       .  A
C449        H454   1.083       .  S
C450        C451   1.408       .  A
C451        H455   1.077       .  S
C456        C457   1.408       .  A
C456        C461   1.395       .  A
C456        H462   1.082       .  S
C457        C458   1.405       .  A
C458        C459   1.395       .  A
C458        H463   1.081       .  S
C459        C460   1.401       .  A
C459        H464   1.083       .  S
C460        C461   1.400       .  A
C461        H465   1.083       .  S
C466        C467   1.401       .  A
C466        C471   1.393       .  A
C466        H472   1.083       .  S
C467        C468   1.401       .  A
C468        C469   1.392       .  A
C468        H473   1.083       .  S
C469        C470   1.399       .  A
C469        H474   1.084       .  S
C470        C471   1.399       .  A
C471        H475   1.083       .  S
C476        C477   1.410       .  A
C476        C481   1.394       .  A
C476        H482   1.081       .  S
C477        C478   1.411       .  A
C478        C479   1.386       .  A
C478        H483   1.081       .  S
C479        C480   1.394       .  A
C479        H484   1.084       .  S
C480        C481   1.399       .  A
C481        H485   1.083       .  S
C486        C487   1.403       .  A
C486        C491   1.392       .  A
C486        H492   1.083       .  S
C487        C488   1.399       .  A
C488        C489   1.393       .  A
C488        H493   1.083       .  S
C489        C490   1.408       .  A
C489        H494   1.081       .  S
C490        C491   1.403       .  A
C491        H495   1.082       .  S
C496        C497   1.399       .  A
C496        C501   1.395       .  A
C496        H502   1.083       .  S
C497        C498   1.404       .  A
C498        C499   1.395       .  A
C498        H503   1.083       .  S
C499        C500   1.403       .  A
C499        H504   1.083       .  S
C500        C501   1.407       .  A
C501        H505   1.083       .  S
C506        C507   1.396       .  A
C506        C511   1.386       .  A
C506        H512   1.084       .  S
C507        C508   1.400       .  A
C508        C509   1.394       .  A
C508        H513   1.083       .  S
C509        C510   1.404       .  A
C509        H514   1.083       .  S
C510        C511   1.403       .  A
C511        H515   1.082       .  S
C516        C517   1.402       .  A
C516        C521   1.386       .  A
C516        H522   1.084       .  S
C517        C518   1.403       .  A
C518        C519   1.392       .  A
C518        H523   1.083       .  S
C519        C520   1.400       .  A
C519        H524   1.083       .  S
C520        C521   1.398       .  A
C521        H525   1.083       .  S
C526        C527   1.402       .  A
C526        C531   1.395       .  A
C526        H532   1.083       .  S
C527        C528   1.402       .  A
C528        C529   1.390       .  A
C528        H533   1.083       .  S
C529        C530   1.401       .  A
C529        H534   1.083       .  S
C530        C531   1.403       .  A
C531        H535   1.083       .  S
C536        C537   1.400       .  A
C536        C541   1.391       .  A
C536        H542   1.083       .  S
C537        C538   1.401       .  A
C538        C539   1.399       .  A
C538        H543   1.083       .  S
C539        C540   1.408       .  A
C539        H544   1.082       .  S
C540        C541   1.403       .  A
C541        H545   1.082       .  S
C546        C547   1.404       .  A
C546        C551   1.390       .  A
C546        H552   1.079       .  S
C547        C548   1.413       .  A
C548        C549   1.393       .  A
C548        H553   1.083       .  S
C549        C550   1.395       .  A
C549        H554   1.083       .  S
C550        C551   1.401       .  A
C551        H555   1.084       .  S
C556        C557   1.412       .  A
C556        C561   1.393       .  A
C556        H562   1.083       .  S
C557        C558   1.406       .  A
C558        C559   1.391       .  A
C558        H563   1.077       .  S
C559        C560   1.401       .  A
C559        H564   1.084       .  S
C560        C561   1.394       .  A
C561        H565   1.083       .  S
C566        C567   1.406       .  A
C566        C571   1.394       .  A
C566        H572   1.083       .  S
C567        C568   1.404       .  A
C568        C569   1.385       .  A
C568        H573   1.081       .  S
C569        C570   1.396       .  A
C569        H574   1.084       .  S
C570        C571   1.399       .  A
C571        H575   1.083       .  S
C576        C577   1.404       .  A
C576        C581   1.392       .  A
C576        H582   1.083       .  S
C577        C578   1.405       .  A
C578        C579   1.396       .  A
C578        H583   1.083       .  S
C579        C580   1.400       .  A
C579        H584   1.083       .  S
C580        C581   1.399       .  A
C581        H585   1.083       .  S
C586        H588   1.087       .  S
C586        C587   1.336       .  D
C587        H589   1.086       .  S
C590        H592   1.085       .  S
C590        C591   1.334       .  D
C591        H593   1.088       .  S
C594        H596   1.086       .  S
C594        C595   1.340       .  D
C595        H597   1.085       .  S
C598        H600   1.086       .  S
C598        C599   1.339       .  D
C599        H601   1.087       .  S
C602        H604   1.086       .  S
C602        C603   1.336       .  D
C603        H605   1.088       .  S
C606        H608   1.087       .  S
C606        C607   1.342       .  D
C607        H609   1.086       .  S
C610        H612   1.087       .  S
C610        C611   1.339       .  D
C611        H613   1.086       .  S
C614        H616   1.087       .  S
C614        C615   1.340       .  D
C615        H617   1.086       .  S
