geometry optimzed in LAMMPS
_audit_creation_date              2020-12-01 
_audit_creation_method            'lammps2cif' 
_symmetry_space_group_name_H-M    'P1' 
_symmetry_Int_Tables_number       1 
_symmetry_cell_setting            triclinic 
loop_ 
_symmetry_equiv_pos_as_xyz 
  x,y,z 
_cell_length_a                    38.93691729 
_cell_length_b                    38.55700129694319 
_cell_length_c                    33.74588088816271 
_cell_angle_alpha                 92.40586821411324 
_cell_angle_beta                  89.85697511781785 
_cell_angle_gamma                 89.72530826070162 
loop_ 
_atom_site_label 
_atom_site_type_symbol 
_atom_site_fract_x 
_atom_site_fract_y 
_atom_site_fract_z 
_atom_site_charge 
C1          C  0.16322025  0.13902399  0.15006614     0.30800
C2          C  0.11445117  0.09794922  0.10866252     0.30800
C3          C  0.16659189  0.13528022  0.10327468    -0.05400
C4          C  0.16125100  0.10115353  0.16170111    -0.06200
C5          C  0.12549671  0.14860749  0.15510051    -0.06000
C6          C  0.13815995  0.11887970  0.08270690    -0.05400
C7          C  0.14022733  0.07902526  0.13606058    -0.06100
C8          C  0.10095993  0.12725032  0.13610480    -0.06000
C9          C  0.14995196  0.10250739  0.04956036    -0.31400
N10         N  0.18285702  0.09504185  0.05514824     0.15100
C11         C  0.19410722  0.11894029  0.08344563    -0.31400
H12         H  0.21976338  0.11972827  0.09517387     0.17000
C13         C  0.12757540  0.05489184  0.15925104    -0.30400
N14         N  0.12683261  0.06843930  0.19667854     0.13800
C15         C  0.15168888  0.09255735  0.19963420    -0.30400
C16         C  0.07061007  0.14439614  0.13941299    -0.30700
N17         N  0.07610796  0.17478528  0.15949991     0.14300
H18         H  0.04775705  0.13847522  0.12290218     0.16900
C19         C  0.10917508  0.17741237  0.16989909    -0.30700
H20         H  0.12080725  0.20032822  0.18280621     0.16900
H21         H  0.15585255  0.10906827  0.22577357     0.16900
H22         H  0.13329565  0.08793779  0.03017140     0.17000
H23         H  0.10834162  0.03717412  0.14734171     0.16900
N24         N  0.49777057  0.21796975  0.15617656    -0.35800
N25         N  0.04372959  0.24786957  0.10665783    -0.56300
N26         N  0.49360273  0.29120987  0.06909636    -0.35800
N27         N  0.44574179  0.24823835  0.11257644    -0.56300
C28         C  0.02510501  0.20792126  0.17150830     0.27800
C29         C  0.47088437  0.21139786  0.17895298     0.27800
C30         C  0.01863578  0.31238933  0.08670241     0.27800
C31         C  0.46382006  0.30771054  0.07774735     0.27800
C32         C  0.06429999  0.22281075  0.11845984     0.36400
C33         C  0.06264898  0.26875770  0.08549062     0.36400
C34         C  0.42801053  0.22284758  0.12836830     0.36400
C35         C  0.42711494  0.25930773  0.08233799     0.36400
C36         C  0.01718500  0.19532037  0.20816852    -0.21100
C37         C  0.48175095  0.19798801  0.21433447    -0.21100
C38         C  0.00506975  0.34189091  0.10580344    -0.21100
C39         C  0.46982491  0.33804024  0.10019151    -0.21100
C40         C  0.09633590  0.22527246  0.10058429    -0.22100
C41         C  0.09552578  0.25563394  0.08048747    -0.22100
C42         C  0.39793046  0.21672157  0.10719339    -0.22100
C43         C  0.39729340  0.24031886  0.07783584    -0.22100
C44         C  0.05603217  0.20374382  0.15150247    -0.17500
C45         C  0.43886774  0.20627612  0.16237686    -0.17500
C46         C  0.43119985  0.29309984  0.07163196    -0.17500
C47         C  0.05345653  0.30314546  0.08669978    -0.17500
H48         H  0.03453915  0.18347989  0.22852980     0.15400
H49         H  0.46580752  0.18731250  0.23711544     0.15400
H50         H  0.01810519  0.36136205  0.12411875     0.15400
H51         H  0.45152664  0.35489859  0.11560227     0.15400
H52         H  0.11915077  0.21002097  0.10545972     0.13700
H53         H  0.11738856  0.26857451  0.06797929     0.13700
H54         H  0.37748784  0.19904138  0.11355505     0.13700
H55         H  0.37591655  0.24547264  0.05845729     0.13700
H56         H  0.49654848  0.21844556  0.12538717     0.27000
H57         H  0.49665485  0.26724309  0.05380583     0.27000
C58         C  0.37680306  0.40634097  0.07934153     0.30800
C59         C  0.33670780  0.36692802  0.13358613     0.30800
C60         C  0.38932136  0.37055222  0.08827041    -0.05400
C61         C  0.36957478  0.42203364  0.12062061    -0.06200
C62         C  0.34017789  0.39442949  0.06589450    -0.06000
C63         C  0.37035545  0.35039800  0.11545533    -0.05400
C64         C  0.35056279  0.40240795  0.14847907    -0.06100
C65         C  0.31891484  0.37797595  0.09507879    -0.06000
C66         C  0.37974057  0.31665004  0.10603447    -0.31400
N67         N  0.40231038  0.31594898  0.07507868     0.15100
C68         C  0.40461942  0.34810037  0.06166115    -0.31400
H69         H  0.42040422  0.35532923  0.03685883     0.17000
C70         C  0.36644385  0.40869066  0.18385285    -0.30400
N71         N  0.39464152  0.42814816  0.17781688     0.13800
C72         C  0.39439767  0.43890699  0.14093426    -0.30400
C73         C  0.29026037  0.39877132  0.09742383    -0.30700
N74         N  0.29474856  0.42698163  0.07527676     0.14300
H75         H  0.27310590  0.39668836  0.12177364     0.16900
C76         C  0.31967308  0.41702983  0.04968143    -0.30700
H77         H  0.33141284  0.43229851  0.02951053     0.16900
H78         H  0.41542948  0.45289114  0.12808060     0.16900
H79         H  0.37195109  0.29430142  0.12194187     0.17000
H80         H  0.35947641  0.39609880  0.21045433     0.16900
N81         N  0.08978251  0.00947035  0.21317775    -0.35800
N82         N  0.04502227  0.09736713  0.24451552    -0.56300
N83         N  0.08073704  0.02430690  0.30653506    -0.35800
N84         N  0.04098252  0.44075049  0.24791689    -0.56300
C85         C  0.07455590  0.04030616  0.21082193     0.27800
C86         C  0.06586456  0.48630140  0.19815334     0.27800
C87         C  0.05827671  0.05048849  0.30170299     0.27800
C88         C  0.06527570  0.49514211  0.29666659     0.27800
C89         C  0.07414641  0.10190573  0.22402419     0.36400
C90         C  0.05302626  0.11042969  0.28045712     0.36400
C91         C  0.05431037  0.42722854  0.21433840     0.36400
C92         C  0.06452463  0.43361620  0.27518122     0.36400
C93         C  0.04301400  0.03694057  0.19289415    -0.21100
C94         C  0.03712069  0.50252551  0.18455570    -0.21100
C95         C  0.02723758  0.03783852  0.28970025    -0.21100
C96         C  0.03124090  0.50295665  0.28864950    -0.21100
C97         C  0.08827229  0.13274264  0.23885575    -0.22100
C98         C  0.07134928  0.14024221  0.27435222    -0.22100
C99         C  0.06877826  0.39612713  0.22396180    -0.22100
C100        C  0.07900104  0.40210175  0.26278632    -0.22100
C101        C  0.09289639  0.07094684  0.21380310    -0.17500
C102        C  0.07410498  0.45154332  0.19370543    -0.17500
C103        C  0.08192674  0.46238066  0.29394619    -0.17500
C104        C  0.06771027  0.08538962  0.30524284    -0.17500
H105        H  0.02723094  0.05803038  0.18337194     0.15400
H106        H  0.01685538  0.49105477  0.16712092     0.15400
H107        H  0.00488824  0.05295352  0.28333906     0.15400
H108        H  0.01070285  0.48540640  0.28180728     0.15400
H109        H  0.11276992  0.14379264  0.23251414     0.13700
H110        H  0.08094875  0.15808620  0.29732334     0.13700
H111        H  0.08106296  0.37761085  0.20368856     0.13700
H112        H  0.10151948  0.39004253  0.27324634     0.13700
H113        H  0.11456046  0.00461455  0.22358943     0.27000
H114        H  0.10703976  0.02676938  0.31192821     0.27000
N115        N  0.41201528  0.99599022  0.20021048    -0.35800
N116        N  0.44615561  0.42284008  0.26256175    -0.56300
N117        N  0.40542932  0.01175974  0.29396212    -0.35800
N118        N  0.45322702  0.07891425  0.26079386    -0.56300
C119        C  0.43347119  0.46908564  0.20516816     0.27800
C120        C  0.42894351  0.02509717  0.21071761     0.27800
C121        C  0.41896516  0.48115505  0.29644465     0.27800
C122        C  0.42778561  0.03402373  0.31057105     0.27800
C123        C  0.43818406  0.40932032  0.22677480     0.36400
C124        C  0.41661802  0.41968628  0.28263508     0.36400
C125        C  0.43006495  0.08638635  0.23326176     0.36400
C126        C  0.43997196  0.09279528  0.29423798     0.36400
C127        C  0.46458949  0.48162943  0.21670985    -0.21100
C128        C  0.46239447  0.01640843  0.22043451    -0.21100
C129        C  0.45002938  0.48351195  0.31569272    -0.21100
C130        C  0.45583257  0.01695493  0.32498306    -0.21100
C131        C  0.41877245  0.38031171  0.23318510    -0.22100
C132        C  0.40123821  0.38943848  0.26776430    -0.22100
C133        C  0.41581381  0.11800656  0.24553065    -0.22100
C134        C  0.42594091  0.12400578  0.28435079    -0.22100
C135        C  0.42445985  0.43422854  0.20115769    -0.17500
C136        C  0.41272183  0.05801849  0.21369013    -0.17500
C137        C  0.41990327  0.06889962  0.31513305    -0.17500
C138        C  0.39933910  0.45137030  0.29322896    -0.17500
H139        H  0.48698593  0.46650405  0.22282938     0.15400
H140        H  0.48287643  0.03318365  0.22954421     0.15400
H141        H  0.46458721  0.46197686  0.32633306     0.15400
H142        H  0.47582015  0.02775140  0.34363155     0.15400
H143        H  0.40915467  0.36219371  0.21050162     0.13700
H144        H  0.37613966  0.37949477  0.27353102     0.13700
H145        H  0.39332030  0.13008703  0.23511007     0.13700
H146        H  0.41375074  0.14271114  0.30440755     0.13700
H147        H  0.38573439  0.99412658  0.19436743     0.27000
H148        H  0.38109692  0.01756686  0.28286171     0.27000
C149        C  0.11079212  0.42047231  0.39535279     0.30800
C150        C  0.15775376  0.38484080  0.34530438     0.30800
C151        C  0.09602948  0.39452759  0.36405881    -0.05400
C152        C  0.13386634  0.44321582  0.36939103    -0.06200
C153        C  0.13553683  0.39608332  0.41529755    -0.06000
C154        C  0.12032018  0.37562856  0.34044701    -0.05400
C155        C  0.15463939  0.42471817  0.33963140    -0.06100
C156        C  0.16225794  0.38195804  0.39033063    -0.06000
C157        C  0.10525062  0.34683572  0.32456126    -0.31400
N158        N  0.07336631  0.34646718  0.33897732     0.15100
C159        C  0.06723989  0.37490287  0.36285252    -0.31400
H160        H  0.04618649  0.37717924  0.38361475     0.17000
C161        C  0.14177719  0.43763483  0.30442314    -0.30400
N162        N  0.11556871  0.46033831  0.31234438     0.13800
C163        C  0.11696905  0.46884064  0.35105492    -0.30400
C164        C  0.19180728  0.39161921  0.40962071    -0.30700
N165        N  0.18309943  0.41113761  0.44221141     0.14300
H166        H  0.21667761  0.39161335  0.39554435     0.16900
C167        C  0.14980718  0.40601248  0.44954181    -0.30700
H168        H  0.13497173  0.42014786  0.47175436     0.16900
H169        H  0.09680672  0.48393789  0.36589863     0.16900
H170        H  0.11753423  0.32545054  0.30846239     0.17000
H171        H  0.14593234  0.42474187  0.27603192     0.16900
N172        N  0.50111955  0.22911193  0.43290571    -0.35800
N173        N  0.04950159  0.27238106  0.39452447    -0.56300
N174        N  0.49713453  0.30472425  0.35103733    -0.35800
N175        N  0.44998960  0.27364115  0.39626685    -0.56300
C176        C  0.03021208  0.21267595  0.42814254     0.27800
C177        C  0.47569045  0.20972075  0.41696632     0.27800
C178        C  0.02486620  0.31122819  0.32955661     0.27800
C179        C  0.46862544  0.31483043  0.33286436     0.27800
C180        C  0.06772099  0.26054623  0.42464845     0.36400
C181        C  0.06765066  0.29784382  0.37955757     0.36400
C182        C  0.43169375  0.25329829  0.41872950     0.36400
C183        C  0.42918271  0.29862959  0.38488468     0.36400
C184        C  0.02343953  0.18238633  0.40588047    -0.21100
C185        C  0.48881025  0.18048905  0.39682330    -0.21100
C186        C  0.01433475  0.32584844  0.29471667    -0.21100
C187        C  0.47647841  0.32744736  0.29622691    -0.21100
C188        C  0.09784427  0.27897109  0.42976869    -0.22100
C189        C  0.09771811  0.30318162  0.40104023    -0.22100
C190        C  0.39883303  0.26637425  0.42431011    -0.22100
C191        C  0.39746711  0.29632273  0.40351273    -0.22100
C192        C  0.06312843  0.22658853  0.43429287    -0.17500
C193        C  0.44095900  0.21901865  0.41815038    -0.17500
C194        C  0.43749893  0.31855443  0.35268817    -0.17500
C195        C  0.05701943  0.31531233  0.34614328    -0.17500
H196        H  0.04125677  0.16487457  0.39066555     0.15400
H197        H  0.47533360  0.16152617  0.37823296     0.15400
H198        H  0.03055166  0.33668093  0.27229717     0.15400
H199        H  0.45906231  0.33914125  0.27583813     0.15400
H200        H  0.11900914  0.27312597  0.44917864     0.13700
H201        H  0.11834348  0.32091923  0.39540292     0.13700
H202        H  0.37733971  0.25368798  0.43793620     0.13700
H203        H  0.37463743  0.31171909  0.39925150     0.13700
H204        H  0.49883369  0.25285255  0.44884966     0.27000
H205        H  0.49940940  0.30322907  0.38166421     0.27000
C206        C  0.34268279  0.15298994  0.35883977     0.30800
C207        C  0.37775812  0.11323167  0.41596823     0.30800
C208        C  0.38057773  0.16248193  0.36773075    -0.05400
C209        C  0.32800737  0.15471487  0.40030548    -0.06200
C210        C  0.34588792  0.11321743  0.35042340    -0.06000
C211        C  0.39772367  0.14102081  0.39561155    -0.05400
C212        C  0.34746309  0.13818654  0.43094672    -0.06100
C213        C  0.36033745  0.09311138  0.38146481    -0.06000
C214        C  0.41865361  0.16185228  0.41759261    -0.31400
N215        N  0.41719539  0.19372496  0.40460337     0.15100
C216        C  0.39426914  0.19510344  0.37466953    -0.31400
H217        H  0.38639135  0.21858873  0.36087922     0.17000
C218        C  0.32213357  0.12794493  0.45411814    -0.30400
N219        N  0.29355707  0.12155842  0.43187819     0.13800
C220        C  0.29437389  0.14527048  0.40452581    -0.30400
C221        C  0.37761937  0.06620398  0.36417451    -0.30700
N222        N  0.38492057  0.07497452  0.32747358     0.14300
H223        H  0.39396172  0.04895474  0.38039798     0.16900
C224        C  0.36214284  0.09971591  0.31716275    -0.30700
H225        H  0.36276604  0.11362808  0.29049188     0.16900
H226        H  0.27545642  0.14736450  0.38160844     0.16900
H227        H  0.43182095  0.15543192  0.44453881     0.17000
H228        H  0.32920380  0.11531757  0.48004661     0.16900
N229        N  0.28408208  0.48413780  0.02433924    -0.35800
N230        N  0.24090325  0.48404202  0.11115876    -0.56300
N231        N  0.21626524  0.44641094  0.01752168    -0.35800
N232        N  0.24387785  0.48040463  0.45260096    -0.56300
C233        C  0.30013017  0.48780098  0.05967965     0.27800
C234        C  0.30626932  0.48128510  0.49515053     0.27800
C235        C  0.20422536  0.45877709  0.05236511     0.27800
C236        C  0.19200193  0.45578464  0.49092639     0.27800
C237        C  0.27232075  0.47466975  0.12160781     0.36400
C238        C  0.22134684  0.45654308  0.11863567     0.36400
C239        C  0.27351881  0.47637142  0.43436985     0.36400
C240        C  0.22086900  0.46230595  0.43131750     0.36400
C241        C  0.33402685  0.49455830  0.05160108    -0.21100
C242        C  0.33781128  0.48842446  0.51144788    -0.21100
C243        C  0.17294616  0.47463395  0.04797813    -0.21100
C244        C  0.16350585  0.46945201  0.50909847    -0.21100
C245        C  0.26813219  0.45393094  0.15392888    -0.22100
C246        C  0.23470357  0.44157986  0.15168196    -0.22100
C247        C  0.26702598  0.46582793  0.39521789    -0.22100
C248        C  0.23295277  0.45624099  0.39325229    -0.22100
C249        C  0.29286789  0.46370049  0.08880514    -0.17500
C250        C  0.29980129  0.46370993  0.45782092    -0.17500
C251        C  0.19556133  0.44515985  0.45209453    -0.17500
C252        C  0.20875310  0.43889567  0.08405793    -0.17500
H253        H  0.35422072  0.49785085  0.07337989     0.15400
H254        H  0.36118090  0.49101400  0.49546048     0.15400
H255        H  0.15555931  0.48339168  0.07141128     0.15400
H256        H  0.13960143  0.47505168  0.49518833     0.15400
H257        H  0.28856358  0.44137245  0.16972241     0.13700
H258        H  0.22521706  0.41962221  0.16705200     0.13700
H259        H  0.28548735  0.46086575  0.37212066     0.13700
H260        H  0.22055994  0.44303488  0.36836887     0.13700
H261        H  0.25810395  0.48503260  0.02131627     0.27000
H262        H  0.23708305  0.42939230  0.01278167     0.27000
N263        N  0.21188208  0.03938481  0.98148376    -0.35800
N264        N  0.25087765  0.04382481  0.05446461    -0.56300
N265        N  0.27807395  0.08007162  0.98985775    -0.35800
N266        N  0.25580988  0.03933213  0.39445345    -0.56300
C267        C  0.18863734  0.04196915  0.01091654     0.27800
C268        C  0.19554411  0.03628255  0.44479506     0.27800
C269        C  0.30100609  0.07152149  0.01640761     0.27800
C270        C  0.29085004  0.06497243  0.45468894     0.27800
C271        C  0.22092935  0.04673425  0.07223715     0.36400
C272        C  0.27295119  0.06296346  0.07598420     0.36400
C273        C  0.22448753  0.04833575  0.38318013     0.36400
C274        C  0.27496745  0.06731861  0.38791653     0.36400
C275        C  0.15723273  0.03502832  0.99404202    -0.21100
C276        C  0.16144456  0.03037684  0.45244892    -0.21100
C277        C  0.32901747  0.05648073  0.99876489    -0.21100
C278        C  0.32202532  0.04873487  0.45854294    -0.21100
C279        C  0.22679211  0.05725792  0.11156497    -0.22100
C280        C  0.26049067  0.06821798  0.11400088    -0.22100
C281        C  0.22916865  0.06880945  0.35074811    -0.22100
C282        C  0.26216903  0.08208441  0.35441204    -0.22100
C283        C  0.19463030  0.05917982  0.04854125    -0.17500
C284        C  0.20354700  0.05990699  0.41548288    -0.17500
C285        C  0.28603320  0.08509044  0.42320006    -0.17500
C286        C  0.29737638  0.08142231  0.05530024    -0.17500
H287        H  0.13360591  0.03252447  0.00968990     0.15400
H288        H  0.14151211  0.02717854  0.43032896     0.15400
H289        H  0.35290868  0.05090559  0.01279091     0.15400
H290        H  0.33912406  0.03994880  0.43484484     0.15400
H291        H  0.20790666  0.06155489  0.13439700     0.13700
H292        H  0.27217335  0.08175373  0.13913194     0.13700
H293        H  0.20890759  0.08078128  0.33407012     0.13700
H294        H  0.27143290  0.10440300  0.33954570     0.13700
H295        H  0.23772372  0.03933664  0.98485117     0.27000
H296        H  0.25718073  0.09699014  0.99454174     0.27000
C297        C  0.33036710  0.38387673  0.35634892     0.30800
C298        C  0.37933194  0.42447285  0.39780873     0.30800
C299        C  0.36808690  0.37438749  0.35090174    -0.05400
C300        C  0.33200497  0.42191232  0.34541948    -0.06200
C301        C  0.32709481  0.38723866  0.40317903    -0.06000
C302        C  0.39271091  0.39537373  0.37009368    -0.05400
C303        C  0.35337777  0.44371891  0.37092538    -0.06100
C304        C  0.35565643  0.40343246  0.42375865    -0.06000
C305        C  0.42293005  0.37781155  0.36690892    -0.31400
N306        N  0.41742378  0.34786581  0.34589108     0.15100
C307        C  0.38429614  0.34565212  0.33563800    -0.31400
H308        H  0.37250056  0.32308472  0.32226987     0.17000
C309        C  0.36544261  0.46830191  0.34789508    -0.30400
N310        N  0.36544438  0.45523207  0.31023780     0.13800
C311        C  0.34031560  0.43141998  0.30754177    -0.30400
C312        C  0.34396640  0.41986987  0.45691949    -0.30700
N313        N  0.31112890  0.42765391  0.45136545     0.14300
H314        H  0.36076754  0.43453383  0.47603296     0.16900
C315        C  0.29969147  0.40382980  0.42307740    -0.30700
H316        H  0.27410759  0.40346797  0.41117602     0.16900
H317        H  0.33506224  0.41577889  0.28100769     0.16900
H318        H  0.44563953  0.38315287  0.38393575     0.17000
H319        H  0.38489382  0.48586597  0.35960307     0.16900
C320        C  0.33820336  0.13733783  0.16390430     0.30800
C321        C  0.38449430  0.10236170  0.11248444     0.30800
C322        C  0.37575207  0.14611260  0.16882259    -0.05400
C323        C  0.34077507  0.09720878  0.16822556    -0.06200
C324        C  0.33343333  0.14129111  0.11925840    -0.06000
C325        C  0.39971666  0.12743094  0.14454307    -0.05400
C326        C  0.36153346  0.07921273  0.13800921    -0.06100
C327        C  0.35967731  0.12734721  0.09360053    -0.06000
C328        C  0.42877362  0.14668384  0.14616289    -0.31400
N329        N  0.42299250  0.17500387  0.17037267     0.15100
C330        C  0.39116338  0.17466840  0.18504513    -0.31400
H331        H  0.37899812  0.19621370  0.20109724     0.17000
C332        C  0.37850781  0.05324856  0.15569142    -0.30400
N333        N  0.37943626  0.06072152  0.19465114     0.13800
C334        C  0.35318482  0.08323188  0.20303167    -0.30400
C335        C  0.34479443  0.11858302  0.05931159    -0.30700
N336        N  0.31132717  0.11442403  0.06676572     0.14300
H337        H  0.35904372  0.10480618  0.03631879     0.16900
C338        C  0.30341524  0.13304775  0.10017562    -0.30700
H339        H  0.27858686  0.13334860  0.11444052     0.16900
H340        H  0.34872354  0.09524960  0.23181215     0.16900
H341        H  0.44966988  0.14452088  0.12517688     0.17000
H342        H  0.39891287  0.03862920  0.14066504     0.16900
C343        C  0.11823571  0.11395911  0.42428965     0.30800
C344        C  0.15665515  0.15395894  0.36929796     0.30800
C345        C  0.15466922  0.12737821  0.43731800    -0.05400
C346        C  0.12546752  0.09793860  0.38310763    -0.06200
C347        C  0.10464981  0.14920617  0.41505134    -0.06000
C348        C  0.17500967  0.14382924  0.40748399    -0.05400
C349        C  0.14341401  0.11797916  0.35465281    -0.06100
C350        C  0.12287084  0.16978085  0.38761478    -0.06000
C351        C  0.20446482  0.12435590  0.40505969    -0.31400
N352        N  0.20169612  0.09678093  0.42843813     0.15100
C353        C  0.17692654  0.10684477  0.45428295    -0.31400
H354        H  0.16794656  0.09333405  0.47773850     0.17000
C355        C  0.12622919  0.11159471  0.31995946    -0.30400
N356        N  0.09863271  0.09142602  0.32692237     0.18400
C357        C  0.10051331  0.08040406  0.36361378    -0.30400
C358        C  0.11364712  0.20332508  0.39805540    -0.30700
N359        N  0.09162925  0.20350482  0.42947752     0.14300
H360        H  0.12124378  0.22596510  0.38257407     0.16900
C361        C  0.08946557  0.17120153  0.44222679    -0.30700
H362        H  0.07422604  0.16365099  0.46734214     0.16900
H363        H  0.08007587  0.06609633  0.37726720     0.16900
H364        H  0.22106976  0.12656912  0.38018945     0.17000
H365        H  0.13181947  0.12479169  0.29337719     0.16900
C366        C  0.15175289  0.36920628  0.14765657     0.30800
C367        C  0.11663779  0.40952142  0.09098227     0.30800
C368        C  0.11388313  0.35946569  0.13826609    -0.05400
C369        C  0.14822962  0.40877301  0.15679234    -0.06200
C370        C  0.16674111  0.36835006  0.10640772    -0.06000
C371        C  0.09674353  0.38119506  0.11064206    -0.05400
C372        C  0.13358796  0.42924573  0.12612843    -0.06100
C373        C  0.14723813  0.38503184  0.07595268    -0.06000
C374        C  0.07590009  0.36050294  0.08831035    -0.31400
N375        N  0.07713738  0.32845946  0.10094389     0.15100
C376        C  0.10019672  0.32682729  0.13078701    -0.31400
H377        H  0.10818269  0.30320879  0.14414614     0.17000
C378        C  0.11573036  0.45539025  0.14406641    -0.30400
N379        N  0.10886397  0.44590734  0.18065603     0.13800
C380        C  0.13201571  0.42141850  0.19040946    -0.30400
C381        C  0.17249096  0.39593148  0.05323967    -0.30700
N382        N  0.20092511  0.40245537  0.07564925     0.14300
H383        H  0.16525628  0.40862963  0.02755409     0.16900
C384        C  0.20023682  0.37855319  0.10279124    -0.30700
H385        H  0.21894048  0.37655406  0.12593078     0.16900
H386        H  0.13171318  0.40710624  0.21683497     0.16900
H387        H  0.06292124  0.36722707  0.06137713     0.17000
H388        H  0.09894595  0.47253665  0.12826697     0.16900
O389        O  0.05386260  0.07861233  0.09383572    -0.74500
O390        O  0.09606876  0.04934316  0.05934090    -0.53400
C391        C  0.08618994  0.07345866  0.08573322     0.79300
O392        O  0.43811971  0.42397751  0.06143874    -0.59100
O393        O  0.39691654  0.46017710  0.03897647    -0.52100
C394        C  0.40548852  0.43112559  0.05619741     0.71300
O395        O  0.05603286  0.42973301  0.07068116    -0.73600
O396        O  0.09913298  0.46135038  0.04465018    -0.54200
C397        C  0.08917799  0.43475334  0.06549752     0.77300
O398        O  0.44285442  0.08477720  0.09036846    -0.58800
O399        O  0.39964542  0.05611645  0.05739197    -0.51900
C400        C  0.41058596  0.07991849  0.08388475     0.73900
Zr401      Zr  0.99741759  0.05599627  0.06806296     2.54700
O402        O  0.98561748  0.04060625  0.13536728    -0.79300
O403        O  0.99659780  0.11917412  0.06977035    -0.92800
Zr404      Zr  0.99643053  0.45346807  0.05223364     2.64700
O405        O  0.99270420  0.44635381  0.12320846    -0.97700
O406        O  0.49805112  0.39138672  0.03475506    -0.79800
O407        O  0.03187028  0.00403769  0.06058945    -0.83100
O408        O  0.46184117  0.00627034  0.05953681    -2.17800
O409        O  0.43852354  0.09309626  0.43567815    -0.66500
O410        O  0.39549628  0.06171351  0.46209270    -0.51100
C411        C  0.40540245  0.08822636  0.44124584     0.72300
O412        O  0.05210460  0.43867022  0.41613908    -0.59400
O413        O  0.09515740  0.46746127  0.44918809    -0.51400
C414        C  0.08437043  0.44342162  0.42295942     0.74100
O415        O  0.44001456  0.44357254  0.41202393    -0.70800
O416        O  0.39806434  0.47289788  0.44679677    -0.49500
C417        C  0.40777017  0.44876154  0.42045663     0.75400
O418        O  0.05674557  0.09718434  0.44246812    -0.66100
O419        O  0.09756934  0.06111389  0.46564710    -0.53300
C420        C  0.08933021  0.08982833  0.44781211     0.73800
Zr421      Zr  0.99798962  0.06926964  0.45407132     2.77500
O422        O  0.00231966  0.07700977  0.38295763    -0.96900
O423        O  0.99507318  0.12979530  0.47767392    -0.77700
Zr424      Zr  0.99739801  0.46641183  0.43799849     2.70100
O425        O  0.51135261  0.47822946  0.36970691    -0.79000
O426        O  0.99666102  0.40342354  0.44016646    -0.98100
Zr427      Zr  0.06974018  0.00964987  0.50393353     2.21500
Zr428      Zr  0.42463004  0.01324523  0.00232470     2.11100
O429        O  0.46306102  0.01752973  0.44473412    -2.46700
O430        O  0.03222387  0.01653206  0.44700852    -0.78800
O431        O  0.46236331  0.06264467  0.01108041    -0.71000
O432        O  0.03206626  0.46066440  0.49540945    -2.31900
O433        O  0.03270552  0.06031525  0.51116709    -2.28100
O434        O  0.46208801  0.46263105  0.99504794    -0.72700
H435        H  0.44740773  0.00462960  0.08270673     0.79300
H436        H  0.04590428  0.43988330  0.49195649     0.80400
H437        H  0.44940235  0.01963218  0.42109220     0.82600
H438        H  0.04682500  0.08059884  0.51532129     0.80200
H439        H  0.01964882  0.38876895  0.01663995     0.43200
H440        H  0.47371465  0.39627282  0.44800490     0.42200
H441        H  0.01695415  0.45376382  0.35731130     0.41900
H442        H  0.50908022  0.10245339  0.38111824     0.39800
H443        H  0.47247607  0.13111283  0.49332539     0.43000
H444        H  0.01886276  0.12633895  0.05858787     0.37700
H445        H  0.97489466  0.06152490  0.14824465     0.43900
H446        H  0.47371233  0.43229569  0.12789465     0.40300
H447        H  0.52248058  0.06431814  0.37472862     0.45200
H448        H  0.99784178  0.12589625  0.09825832     0.43900
H449        H  0.98600595  0.42184082  0.12600838     0.44000
H450        H  0.49571552  0.39539143  0.40886765     0.44400
O451        O  0.17430627  0.21081818  0.34099086    -0.74500
O452        O  0.20312978  0.16402709  0.31302438    -0.53400
C453        C  0.17962896  0.17741591  0.33845654     0.79300
O454        O  0.17228873  0.31205490  0.17027166    -0.59100
O455        O  0.19909498  0.35869386  0.20074190    -0.52100
C456        C  0.17538640  0.34542061  0.17618989     0.71300
O457        O  0.18290265  0.19829139  0.16739286    -0.73600
O458        O  0.20668169  0.15671098  0.20584103    -0.54200
C459        C  0.18700154  0.16599023  0.17587667     0.77300
O460        O  0.17891425  0.32610986  0.32952179    -0.58800
O461        O  0.20453154  0.36816516  0.29347278    -0.51900
C462        C  0.18259239  0.35847014  0.32063256     0.73900
Zr463      Zr  0.19719075  0.26521835  0.31132393     2.54700
O464        O  0.13516727  0.26278010  0.30362451    -0.79300
O465        O  0.20327089  0.27246870  0.38304927    -0.92800
Zr466      Zr  0.19763241  0.25719057  0.19524594     2.64700
O467        O  0.13632393  0.25773775  0.20982781    -0.97700
O468        O  0.19946005  0.25349342  0.12302703    -0.79800
O469        O  0.19742443  0.22527787  0.25508756    -0.83100
O470        O  0.19867723  0.29679995  0.25135515    -2.17800
O471        O  0.31126619  0.32462791  0.33836964    -0.66500
O472        O  0.28713343  0.36633928  0.30040623    -0.51100
C473        C  0.30677725  0.35697893  0.33030227     0.72300
O474        O  0.31757822  0.19601422  0.18036535    -0.59400
O475        O  0.29060638  0.15365855  0.21455136    -0.51400
C476        C  0.31347107  0.16356688  0.18864988     0.74100
O477        O  0.31958275  0.31070184  0.16357268    -0.70800
O478        O  0.29056588  0.35759491  0.19103680    -0.49500
C479        C  0.31378592  0.34399274  0.16522390     0.75400
O480        O  0.32271405  0.21024039  0.33592373    -0.66100
O481        O  0.29538652  0.16377261  0.30573342    -0.53300
C482        C  0.31927015  0.17688525  0.33015485     0.73800
Zr483      Zr  0.29761993  0.26521072  0.31112278     2.77500
O484        O  0.35866924  0.25972036  0.29573140    -0.96900
O485        O  0.29729007  0.26945286  0.38334226    -0.77700
Zr486      Zr  0.29811601  0.25704616  0.19562236     2.70100
O487        O  0.36016164  0.26101828  0.20280784    -0.79000
O488        O  0.29268599  0.24759235  0.12415239    -0.98100
Zr489      Zr  0.24697029  0.18695845  0.25906872     2.21500
Zr490      Zr  0.24770139  0.33547392  0.24711156     2.11100
O491        O  0.29777926  0.29756041  0.25145954    -2.46700
O492        O  0.29592748  0.22563963  0.25534932    -0.78800
O493        O  0.24729146  0.30041488  0.30598505    -0.71000
O494        O  0.24797302  0.22163943  0.19973914    -2.31900
O495        O  0.24748804  0.22946480  0.31420496    -2.28100
O496        O  0.24781808  0.29273165  0.19240062    -0.72700
H497        H  0.17811329  0.31080496  0.25097095     0.79300
H498        H  0.24856323  0.20586011  0.17670572     0.80400
H499        H  0.31824098  0.31161857  0.25079198     0.82600
H500        H  0.24771307  0.21755707  0.33877427     0.80200
H501        H  0.21323850  0.27372470  0.11553230     0.43200
H502        H  0.27969274  0.26801543  0.11537386     0.42200
H503        H  0.36928588  0.25565915  0.17585948     0.41900
H504        H  0.36430556  0.27897353  0.27845020     0.39800
H505        H  0.32178525  0.27162007  0.39080233     0.43000
H506        H  0.21869822  0.25338229  0.39061883     0.37700
H507        H  0.12609413  0.26599717  0.33093595     0.43900
H508        H  0.13144775  0.28048474  0.22338709     0.40300
H509        H  0.37068771  0.26503823  0.32102649     0.45200
H510        H  0.18053708  0.26625272  0.39382095     0.43900
H511        H  0.12526396  0.25935158  0.18362115     0.44000
H512        H  0.31621181  0.25075610  0.11373101     0.44400
C513        C  0.16305912  0.13913609  0.65017674     0.30800
C514        C  0.11367318  0.09900466  0.60854379     0.30800
C515        C  0.16635102  0.13558459  0.60337191    -0.05400
C516        C  0.16050096  0.10120805  0.66158659    -0.06200
C517        C  0.12553273  0.14920733  0.65540176    -0.06000
C518        C  0.13774509  0.11960531  0.58268942    -0.05400
C519        C  0.13911885  0.07957716  0.63579940    -0.06100
C520        C  0.10059988  0.12854276  0.63620203    -0.06000
C521        C  0.14944172  0.10316252  0.54948397    -0.31400
N522        N  0.18234965  0.09552966  0.55491801     0.15100
C523        C  0.19375726  0.11912588  0.58344634    -0.31400
H524        H  0.21942055  0.11953560  0.59523118     0.17000
C525        C  0.12597439  0.05551368  0.65872258    -0.30400
N526        N  0.12558173  0.06872558  0.69626791     0.13800
C527        C  0.15076616  0.09248755  0.69943209    -0.30400
C528        C  0.07032770  0.14575542  0.64135136    -0.30700
N529        N  0.07639536  0.17548453  0.66277729     0.14300
H530        H  0.04699709  0.14036815  0.62547147     0.16900
C531        C  0.10967854  0.17739325  0.67233674    -0.30700
H532        H  0.12168579  0.19945454  0.68672639     0.16900
H533        H  0.15525846  0.10867168  0.72575092     0.16900
H534        H  0.13272568  0.08895904  0.52980515     0.17000
H535        H  0.10640701  0.03819781  0.64675123     0.16900
N536        N  0.49704467  0.21833977  0.65153039    -0.35800
N537        N  0.04514087  0.24934182  0.61087187    -0.56300
N538        N  0.49224177  0.29293326  0.56715253    -0.35800
N539        N  0.44447873  0.25017777  0.61075542    -0.56300
C540        C  0.02572517  0.20928589  0.67497472     0.27800
C541        C  0.47062958  0.21280293  0.67549687     0.27800
C542        C  0.01940500  0.31165449  0.58422723     0.27800
C543        C  0.46247242  0.30953617  0.57565399     0.27800
C544        C  0.06573664  0.22453713  0.62317062     0.36400
C545        C  0.06312864  0.26798576  0.58623666     0.36400
C546        C  0.42690888  0.22460256  0.62640353     0.36400
C547        C  0.42594167  0.26103613  0.58035950     0.36400
C548        C  0.01715849  0.19652542  0.71133690    -0.21100
C549        C  0.48219923  0.20022359  0.71098818    -0.21100
C550        C  0.00598985  0.34198229  0.60167782    -0.21100
C551        C  0.46851102  0.33964054  0.59854192    -0.21100
C552        C  0.09716779  0.22551028  0.60363035    -0.22100
C553        C  0.09575960  0.25427775  0.58084417    -0.22100
C554        C  0.39695483  0.21819913  0.60510592    -0.22100
C555        C  0.39623139  0.24185555  0.57577835    -0.22100
C556        C  0.05710281  0.20528839  0.65588586    -0.17500
C557        C  0.43811154  0.20792510  0.66014506    -0.17500
C558        C  0.42982400  0.29485394  0.56973548    -0.17500
C559        C  0.05428686  0.30224531  0.58467556    -0.17500
H560        H  0.03428363  0.18532834  0.73241026     0.15400
H561        H  0.46669665  0.19051530  0.73474733     0.15400
H562        H  0.01899576  0.36223165  0.61881427     0.15400
H563        H  0.45031457  0.35644404  0.61414561     0.15400
H564        H  0.11987720  0.20999944  0.60811577     0.13700
H565        H  0.11711937  0.26587286  0.56574185     0.13700
H566        H  0.37677800  0.20010589  0.61121827     0.13700
H567        H  0.37492601  0.24681168  0.55622431     0.13700
H568        H  0.49504351  0.21820839  0.62074799     0.27000
H569        H  0.49524874  0.26909892  0.55157441     0.27000
C570        C  0.37568673  0.40760569  0.57998061     0.30800
C571        C  0.33662089  0.36794264  0.63467591     0.30800
C572        C  0.38863238  0.37203835  0.58876727    -0.05400
C573        C  0.36869599  0.42341262  0.62132897    -0.06200
C574        C  0.33915406  0.39499606  0.56681526    -0.06000
C575        C  0.37029163  0.35171719  0.61634483    -0.05400
C576        C  0.35021391  0.40363048  0.64949990    -0.06100
C577        C  0.31841254  0.37858177  0.59639768    -0.06000
C578        C  0.37923529  0.31803086  0.60598269    -0.31400
N579        N  0.40091356  0.31753190  0.57420430     0.15100
C580        C  0.40295909  0.34978428  0.56120687    -0.31400
H581        H  0.41799741  0.35719308  0.53587518     0.17000
C582        C  0.36685415  0.40979199  0.68452557    -0.30400
N583        N  0.39501045  0.42922952  0.67796890     0.13800
C584        C  0.39381842  0.44027837  0.64121790    -0.30400
C585        C  0.28956577  0.39900189  0.59899128    -0.30700
N586        N  0.29337646  0.42692736  0.57625512     0.14300
H587        H  0.27303173  0.39710709  0.62393238     0.16900
C588        C  0.31793184  0.41674054  0.55028726    -0.30700
H589        H  0.32880448  0.43160381  0.52910661     0.16900
H590        H  0.41444935  0.45438016  0.62786596     0.16900
H591        H  0.37183582  0.29553653  0.62186039     0.17000
H592        H  0.36035111  0.39706039  0.71117381     0.16900
N593        N  0.08917606  0.00961590  0.71306393    -0.35800
N594        N  0.04426454  0.09741142  0.74545003    -0.56300
N595        N  0.08195657  0.02483196  0.80523354    -0.35800
N596        N  0.04246339  0.43988499  0.75024010    -0.56300
C597        C  0.07369149  0.04035899  0.71106366     0.27800
C598        C  0.06672775  0.48612086  0.70023395     0.27800
C599        C  0.05884859  0.05062553  0.80187849     0.27800
C600        C  0.06674307  0.49500957  0.79737767     0.27800
C601        C  0.07321833  0.10195905  0.72462965     0.36400
C602        C  0.05258184  0.11056185  0.78128835     0.36400
C603        C  0.05572837  0.42677575  0.71643226     0.36400
C604        C  0.06666307  0.43328303  0.77697443     0.36400
C605        C  0.04204837  0.03682648  0.69351734    -0.21100
C606        C  0.03768255  0.50178851  0.68677382    -0.21100
C607        C  0.02753958  0.03753284  0.79149523    -0.21100
C608        C  0.03244021  0.50233091  0.78991255    -0.21100
C609        C  0.08757052  0.13267622  0.73945551    -0.22100
C610        C  0.07076895  0.14038527  0.77495497    -0.22100
C611        C  0.07085879  0.39589387  0.72562023    -0.22100
C612        C  0.08174358  0.40215013  0.76409780    -0.22100
C613        C  0.09187400  0.07107335  0.71393522    -0.17500
C614        C  0.07510220  0.45144828  0.69580442    -0.17500
C615        C  0.08380470  0.46247397  0.79512920    -0.17500
C616        C  0.06774781  0.08562950  0.80583266    -0.17500
H617        H  0.02596495  0.05782431  0.68437838     0.15400
H618        H  0.01740104  0.48959809  0.67000651     0.15400
H619        H  0.00465603  0.05237668  0.78696900     0.15400
H620        H  0.01188019  0.48444471  0.78420956     0.15400
H621        H  0.11227924  0.14328610  0.73333160     0.13700
H622        H  0.08051534  0.15825167  0.79781848     0.13700
H623        H  0.08329222  0.37773286  0.70502793     0.13700
H624        H  0.10501218  0.39080320  0.77347448     0.13700
H625        H  0.11409877  0.00494712  0.72313745     0.27000
H626        H  0.10837148  0.02770024  0.80956492     0.27000
N627        N  0.41332851  0.99641803  0.70010817    -0.35800
N628        N  0.44761337  0.42421553  0.76184471    -0.56300
N629        N  0.40658635  0.01288710  0.79252809    -0.35800
N630        N  0.45444796  0.08013838  0.75884603    -0.56300
C631        C  0.43492956  0.46986773  0.70424364     0.27800
C632        C  0.43019539  0.02578041  0.70969849     0.27800
C633        C  0.42083269  0.48259051  0.79645258     0.27800
C634        C  0.42902480  0.03527728  0.80875956     0.27800
C635        C  0.43924938  0.41035832  0.72630591     0.36400
C636        C  0.41831791  0.42119807  0.78239864     0.36400
C637        C  0.43116100  0.08730815  0.73138155     0.36400
C638        C  0.44108838  0.09402726  0.79225129     0.36400
C639        C  0.46631049  0.48240795  0.71521683    -0.21100
C640        C  0.46398802  0.01752709  0.71837172    -0.21100
C641        C  0.45158653  0.48482584  0.81628902    -0.21100
C642        C  0.45654848  0.01828659  0.82438155    -0.21100
C643        C  0.41978839  0.38150664  0.73327820    -0.22100
C644        C  0.40270903  0.39093484  0.76802756    -0.22100
C645        C  0.41676171  0.11892406  0.74351667    -0.22100
C646        C  0.42687285  0.12512597  0.78230974    -0.22100
C647        C  0.42550472  0.43506769  0.70048040    -0.17500
C648        C  0.41377512  0.05864281  0.71250827    -0.17500
C649        C  0.42116999  0.07010688  0.81331693    -0.17500
C650        C  0.40114472  0.45285930  0.79315049    -0.17500
H651        H  0.48891036  0.46724446  0.72039822     0.15400
H652        H  0.48457487  0.03482160  0.72577379     0.15400
H653        H  0.46581311  0.46308376  0.82678460     0.15400
H654        H  0.47631261  0.02920087  0.84315283     0.15400
H655        H  0.40977890  0.36332966  0.71089758     0.13700
H656        H  0.37758683  0.38125520  0.77407678     0.13700
H657        H  0.39420613  0.13085974  0.73307455     0.13700
H658        H  0.41456272  0.14379147  0.80235016     0.13700
H659        H  0.38696044  0.99428026  0.69493286     0.27000
H660        H  0.38236077  0.01860683  0.78106886     0.27000
C661        C  0.11125538  0.42033684  0.89591079     0.30800
C662        C  0.15816914  0.38462662  0.84584677     0.30800
C663        C  0.09646537  0.39471931  0.86428611    -0.05400
C664        C  0.13474884  0.44307524  0.87043840    -0.06200
C665        C  0.13590743  0.39565604  0.91576509    -0.06000
C666        C  0.12068795  0.37569189  0.84081098    -0.05400
C667        C  0.15563179  0.42461898  0.84077641    -0.06100
C668        C  0.16253690  0.38130935  0.89073981    -0.06000
C669        C  0.10531235  0.34714885  0.82458889    -0.31400
N670        N  0.07310784  0.34731832  0.83823154     0.15100
C671        C  0.06719750  0.37576785  0.86218740    -0.31400
H672        H  0.04571035  0.37846915  0.88234328     0.17000
C673        C  0.14367258  0.43825775  0.80562295    -0.30400
N674        N  0.11753919  0.46106835  0.81340239     0.13800
C675        C  0.11853553  0.46920592  0.85222335    -0.30400
C676        C  0.19226892  0.39045956  0.90994768    -0.30700
N677        N  0.18384299  0.41010573  0.94248322     0.14300
H678        H  0.21712687  0.39022628  0.89579264     0.16900
C679        C  0.15045450  0.40545538  0.94988414    -0.30700
H680        H  0.13577135  0.41978081  0.97202881     0.16900
H681        H  0.09832866  0.48436074  0.86691064     0.16900
H682        H  0.11751491  0.32555425  0.80875047     0.17000
H683        H  0.14835225  0.42593589  0.77698975     0.16900
N684        N  0.50096665  0.23002599  0.93513304    -0.35800
N685        N  0.04933476  0.27160704  0.89155826    -0.56300
N686        N  0.49723765  0.30474767  0.85103359    -0.35800
N687        N  0.44943335  0.27137872  0.89139806    -0.56300
C688        C  0.02952624  0.21296477  0.92772667     0.27800
C689        C  0.47605409  0.20975761  0.91943979     0.27800
C690        C  0.02399754  0.31256960  0.82852613     0.27800
C691        C  0.46941360  0.31468265  0.83142222     0.27800
C692        C  0.06682309  0.26054740  0.92268301     0.36400
C693        C  0.06682046  0.29820755  0.87806998     0.36400
C694        C  0.43225675  0.25297973  0.91691401     0.36400
C695        C  0.42906262  0.29719584  0.88130783     0.36400
C696        C  0.02273523  0.18279101  0.90536857    -0.21100
C697        C  0.48991739  0.18008632  0.90100607    -0.21100
C698        C  0.01319505  0.32827032  0.79448079    -0.21100
C699        C  0.47854801  0.32755161  0.79532182    -0.21100
C700        C  0.09607289  0.27994108  0.92933477    -0.22100
C701        C  0.09591154  0.30447585  0.90103228    -0.22100
C702        C  0.40001961  0.26702897  0.92406888    -0.22100
C703        C  0.39834442  0.29640626  0.90225102    -0.22100
C704        C  0.06242586  0.22686928  0.93323981    -0.17500
C705        C  0.44127449  0.21889561  0.91873122    -0.17500
C706        C  0.43775166  0.31802158  0.85004329    -0.17500
C707        C  0.05621989  0.31633948  0.84512470    -0.17500
H708        H  0.04058397  0.16541255  0.88996435     0.15400
H709        H  0.47716914  0.16027025  0.88289419     0.15400
H710        H  0.02916882  0.34018782  0.77260279     0.15400
H711        H  0.46189767  0.33937547  0.77418332     0.15400
H712        H  0.11645256  0.27510027  0.95017926     0.13700
H713        H  0.11568183  0.32352545  0.89714294     0.13700
H714        H  0.37925826  0.25577154  0.94052095     0.13700
H715        H  0.37611439  0.31304601  0.89989583     0.13700
H716        H  0.49801499  0.25429945  0.94977352     0.27000
H717        H  0.49826303  0.30347525  0.88178506     0.27000
C718        C  0.34350202  0.15326040  0.85750226     0.30800
C719        C  0.37773765  0.11349114  0.91533819     0.30800
C720        C  0.38148872  0.16251316  0.86681769    -0.05400
C721        C  0.32848121  0.15512718  0.89867887    -0.06200
C722        C  0.34663181  0.11351429  0.84916065    -0.06000
C723        C  0.39812525  0.14106481  0.89518061    -0.05400
C724        C  0.34756538  0.13881276  0.92965358    -0.06100
C725        C  0.36096186  0.09336604  0.88034867    -0.06000
C726        C  0.41884622  0.16182057  0.91746279    -0.31400
N727        N  0.41804605  0.19352655  0.90406811     0.15100
C728        C  0.39551717  0.19499305  0.87369078    -0.31400
H729        H  0.38797143  0.21850105  0.85967495     0.17000
C730        C  0.32209389  0.12940856  0.95298400    -0.30400
N731        N  0.29352841  0.12295352  0.93072773     0.13800
C732        C  0.29475271  0.14600355  0.90270823    -0.30400
C733        C  0.37921332  0.06712085  0.86293873    -0.30700
N734        N  0.38638260  0.07614004  0.82626151     0.14300
H735        H  0.39593897  0.05022412  0.87914524     0.16900
C736        C  0.36322662  0.10044674  0.81591561    -0.30700
H737        H  0.36384873  0.11457314  0.78938423     0.16900
H738        H  0.27597986  0.14780077  0.87957574     0.16900
H739        H  0.43109628  0.15562728  0.94504917     0.17000
H740        H  0.32893329  0.11743465  0.97945117     0.16900
N741        N  0.28350548  0.48389135  0.52504193    -0.35800
N742        N  0.23998394  0.48400928  0.61082417    -0.56300
N743        N  0.21474871  0.44682330  0.51746891    -0.35800
N744        N  0.24455349  0.47995619  0.95187527    -0.56300
C745        C  0.29968027  0.48747867  0.56029862     0.27800
C746        C  0.30699397  0.48129489  0.99459281     0.27800
C747        C  0.20275053  0.45874675  0.55249752     0.27800
C748        C  0.19339358  0.45488027  0.99088067     0.27800
C749        C  0.27134983  0.47512544  0.62196066     0.36400
C750        C  0.22057393  0.45647143  0.61847964     0.36400
C751        C  0.27421835  0.47605286  0.93368917     0.36400
C752        C  0.22175321  0.46124425  0.93095678     0.36400
C753        C  0.33354142  0.49407454  0.55214880    -0.21100
C754        C  0.33851657  0.48879103  0.01091569    -0.21100
C755        C  0.17146598  0.47465959  0.54840320    -0.21100
C756        C  0.16493792  0.46881584  0.00881358    -0.21100
C757        C  0.26699817  0.45480047  0.65458183    -0.22100
C758        C  0.23379148  0.44189734  0.65185254    -0.22100
C759        C  0.26770264  0.46516726  0.89462596    -0.22100
C760        C  0.23375772  0.45504381  0.89288327    -0.22100
C761        C  0.29218133  0.46370828  0.58964560    -0.17500
C762        C  0.30058823  0.46363820  0.95727100    -0.17500
C763        C  0.19684264  0.44393209  0.95219786    -0.17500
C764        C  0.20781042  0.43875964  0.58406858    -0.17500
H765        H  0.35376252  0.49742683  0.57388026     0.15400
H766        H  0.36203009  0.49127998  0.99510574     0.15400
H767        H  0.15418186  0.48328840  0.57199511     0.15400
H768        H  0.14086163  0.47384794  0.99496746     0.15400
H769        H  0.28740464  0.44274066  0.67092738     0.13700
H770        H  0.22443054  0.41993151  0.66730854     0.13700
H771        H  0.28615176  0.46023588  0.87152173     0.13700
H772        H  0.22153478  0.44138460  0.86820280     0.13700
H773        H  0.25740362  0.48417134  0.52224983     0.27000
H774        H  0.23548015  0.42975225  0.51245508     0.27000
N775        N  0.21136402  0.03970351  0.48034228    -0.35800
N776        N  0.25015947  0.04233498  0.55351703    -0.56300
N777        N  0.27915467  0.07697612  0.48983757    -0.35800
N778        N  0.25643743  0.03968329  0.89516674    -0.56300
C779        C  0.18818345  0.04274395  0.50981511     0.27800
C780        C  0.19611872  0.03571364  0.94591783     0.27800
C781        C  0.30208130  0.06785691  0.51612819     0.27800
C782        C  0.28992893  0.06716212  0.95516166     0.27800
C783        C  0.22029570  0.04681838  0.57120017     0.36400
C784        C  0.27305666  0.06010299  0.57539746     0.36400
C785        C  0.22484456  0.04789281  0.88413619     0.36400
C786        C  0.27506191  0.06788719  0.88799381     0.36400
C787        C  0.15672939  0.03627050  0.49304502    -0.21100
C788        C  0.16209625  0.02923650  0.95346633    -0.21100
C789        C  0.33034243  0.05399718  0.49773221    -0.21100
C790        C  0.32087511  0.05065040  0.95965644    -0.21100
C791        C  0.22630069  0.05697947  0.61056660    -0.22100
C792        C  0.26052591  0.06591996  0.61331000    -0.22100
C793        C  0.22888206  0.06811345  0.85138106    -0.22100
C794        C  0.26177747  0.08184425  0.85426846    -0.22100
C795        C  0.19438181  0.05983729  0.54745594    -0.17500
C796        C  0.20388096  0.05930753  0.91647747    -0.17500
C797        C  0.28558539  0.08649669  0.92299956    -0.17500
C798        C  0.29855236  0.07759146  0.55522393    -0.17500
H799        H  0.13324237  0.03394376  0.50904862     0.15400
H800        H  0.14218488  0.02591859  0.93134050     0.15400
H801        H  0.35439374  0.04852729  0.51143210     0.15400
H802        H  0.33795023  0.04112485  0.93626680     0.15400
H803        H  0.20746412  0.06246828  0.63318322     0.13700
H804        H  0.27281994  0.07861760  0.63859946     0.13700
H805        H  0.20825771  0.07964944  0.83488583     0.13700
H806        H  0.27051038  0.10410502  0.83889582     0.13700
H807        H  0.23707287  0.03851836  0.48367897     0.27000
H808        H  0.25836715  0.09394353  0.49509762     0.27000
C809        C  0.33126723  0.38457641  0.85573486     0.30800
C810        C  0.38084783  0.42439453  0.89751036     0.30800
C811        C  0.36886208  0.37459332  0.85038497    -0.05400
C812        C  0.33358095  0.42282211  0.84512138    -0.06200
C813        C  0.32813608  0.38765004  0.90254606    -0.06000
C814        C  0.39387556  0.39519291  0.86953012    -0.05400
C815        C  0.35520705  0.44415325  0.87086421    -0.06100
C816        C  0.35673925  0.40365029  0.92325945    -0.06000
C817        C  0.42414054  0.37764300  0.86512829    -0.31400
N818        N  0.41800081  0.34775984  0.84405683     0.15100
C819        C  0.38463687  0.34580659  0.83474150    -0.31400
H820        H  0.37239782  0.32328367  0.82187893     0.17000
C821        C  0.36761047  0.46898677  0.84836577    -0.30400
N822        N  0.36736692  0.45652597  0.81051052     0.13800
C823        C  0.34207718  0.43283617  0.80745077    -0.30400
C824        C  0.34495887  0.42006559  0.95643179    -0.30700
N825        N  0.31205230  0.42762637  0.95098933     0.14300
H826        H  0.36165411  0.43480516  0.97555787     0.16900
C827        C  0.30069749  0.40379701  0.92269167    -0.30700
H828        H  0.27501646  0.40308067  0.91107190     0.16900
H829        H  0.33656655  0.41772506  0.78060223     0.16900
H830        H  0.44757491  0.38312744  0.88102612     0.17000
H831        H  0.38729348  0.48618022  0.86029725     0.16900
C832        C  0.33817840  0.13736598  0.66263749     0.30800
C833        C  0.38484985  0.10243442  0.61150769     0.30800
C834        C  0.37563703  0.14675870  0.66720387    -0.05400
C835        C  0.34140117  0.09731965  0.66754854    -0.06200
C836        C  0.33307224  0.14044684  0.61778108    -0.06000
C837        C  0.39978259  0.12818514  0.64307332    -0.05400
C838        C  0.36219278  0.07930182  0.63741268    -0.06100
C839        C  0.35958991  0.12670819  0.59223203    -0.06000
C840        C  0.42837437  0.14817489  0.64398846    -0.31400
N841        N  0.42244886  0.17649065  0.66815716     0.15100
C842        C  0.39072458  0.17568678  0.68309485    -0.31400
H843        H  0.37838635  0.19703127  0.69928022     0.17000
C844        C  0.37921023  0.05338692  0.65505945    -0.30400
N845        N  0.38028216  0.06100750  0.69395347     0.13800
C846        C  0.35408219  0.08360530  0.70235978    -0.30400
C847        C  0.34480350  0.11649563  0.55836388    -0.30700
N848        N  0.31164872  0.11111845  0.56628437     0.14300
H849        H  0.35940348  0.10265402  0.53573785     0.16900
C850        C  0.30328170  0.13035400  0.59918036    -0.30700
H851        H  0.27858652  0.13021046  0.61368423     0.16900
H852        H  0.34973194  0.09575141  0.73108401     0.16900
H853        H  0.44874972  0.14652014  0.62238972     0.17000
H854        H  0.39954981  0.03870581  0.63998847     0.16900
C855        C  0.11845374  0.11410707  0.92440985     0.30800
C856        C  0.15723056  0.15413313  0.86970787     0.30800
C857        C  0.15479925  0.12724420  0.93771104    -0.05400
C858        C  0.12596873  0.09809158  0.88322185    -0.06200
C859        C  0.10497242  0.14944513  0.91508926    -0.06000
C860        C  0.17540597  0.14370140  0.90807523    -0.05400
C861        C  0.14379663  0.11830718  0.85482765    -0.06100
C862        C  0.12338790  0.17000051  0.88786837    -0.06000
C863        C  0.20466515  0.12385730  0.90585210    -0.31400
N864        N  0.20148982  0.09621096  0.92912925     0.15100
C865        C  0.17651753  0.10616847  0.95472679    -0.31400
H866        H  0.16663444  0.09197686  0.97719523     0.17000
C867        C  0.12625989  0.11227306  0.82026384    -0.30400
N868        N  0.09883460  0.09183933  0.82722193     0.18400
C869        C  0.10121781  0.08036567  0.86368110    -0.30400
C870        C  0.11326495  0.20353046  0.89721877    -0.30700
N871        N  0.09087458  0.20369145  0.92831382     0.14300
H872        H  0.12058937  0.22611351  0.88141865     0.16900
C873        C  0.08898038  0.17148799  0.94153602    -0.30700
H874        H  0.07353923  0.16400418  0.96651134     0.16900
H875        H  0.08124037  0.06552646  0.87734927     0.16900
H876        H  0.22150347  0.12602576  0.88120406     0.17000
H877        H  0.13155470  0.12584111  0.79386712     0.16900
C878        C  0.15151670  0.36903924  0.64737844     0.30800
C879        C  0.11653392  0.40890903  0.59016339     0.30800
C880        C  0.11369519  0.35900566  0.63748448    -0.05400
C881        C  0.14793874  0.40858594  0.65617860    -0.06200
C882        C  0.16683865  0.36811152  0.60628268    -0.06000
C883        C  0.09678803  0.38044646  0.60937060    -0.05400
C884        C  0.13272303  0.42871267  0.62562045    -0.06100
C885        C  0.14749268  0.38457725  0.57554004    -0.06000
C886        C  0.07689956  0.35950326  0.58613643    -0.31400
N887        N  0.07799502  0.32756705  0.59890034     0.15100
C888        C  0.10044441  0.32622940  0.62945400    -0.31400
H889        H  0.10829740  0.30271479  0.64312952     0.17000
C890        C  0.11444961  0.45451978  0.64371901    -0.30400
N891        N  0.10921447  0.44576665  0.68092866     0.13800
C892        C  0.13287919  0.42167601  0.69022631    -0.30400
C893        C  0.17284709  0.39521044  0.55275584    -0.30700
N894        N  0.20106479  0.40210788  0.57541938     0.14300
H895        H  0.16571207  0.40786186  0.52689275     0.16900
C896        C  0.20032533  0.37835580  0.60277517    -0.30700
H897        H  0.21887349  0.37664286  0.62612541     0.16900
H898        H  0.13382111  0.40814796  0.71721600     0.16900
H899        H  0.06444352  0.36612739  0.55881418     0.17000
H900        H  0.09674037  0.47101260  0.62829810     0.16900
O901        O  0.05318086  0.07933986  0.59416318    -0.74500
O902        O  0.09530848  0.05049894  0.55899545    -0.53400
C903        C  0.08543534  0.07453323  0.58558270     0.79300
O904        O  0.43704804  0.42465545  0.56198998    -0.59100
O905        O  0.39615859  0.46072114  0.53877400    -0.52100
C906        C  0.40448674  0.43192111  0.55651354     0.71300
O907        O  0.05578536  0.42845009  0.56947629    -0.73600
O908        O  0.09878079  0.46084228  0.54445388    -0.54200
C909        C  0.08892902  0.43389187  0.56468386     0.77300
O910        O  0.44333001  0.08451250  0.58973933    -0.58800
O911        O  0.40021113  0.05575515  0.55679793    -0.51900
C912        C  0.41107408  0.07975463  0.58314967     0.73900
Zr913      Zr  0.99717253  0.05623074  0.56802056     2.54700
O914        O  0.98433071  0.04232007  0.63568268    -0.79300
O915        O  0.99743244  0.11939953  0.56919323    -0.92800
Zr916      Zr  0.99622146  0.45278452  0.55167798     2.64700
O917        O  0.99248977  0.44586359  0.62272478    -0.97700
O918        O  0.49637315  0.39115025  0.53335440    -0.79800
O919        O  0.03161725  0.00420880  0.56078682    -0.83100
O920        O  0.46193637  0.00476393  0.55905295    -2.17800
O921        O  0.43797954  0.09361231  0.93679370    -0.66500
O922        O  0.39468739  0.06193832  0.96204134    -0.51100
C923        C  0.40482388  0.08855042  0.94147681     0.72300
O924        O  0.05236087  0.43837307  0.91663987    -0.59400
O925        O  0.09536182  0.46739311  0.94956922    -0.51400
C926        C  0.08466089  0.44324742  0.92342828     0.74100
O927        O  0.44158141  0.44326936  0.91208354    -0.70800
O928        O  0.39953138  0.47243319  0.94690522    -0.49500
C929        C  0.40932173  0.44839113  0.92046707     0.75400
O930        O  0.05705570  0.09693925  0.94249825    -0.66100
O931        O  0.09814426  0.06110086  0.96581963    -0.53300
C932        C  0.08969126  0.08976165  0.94789354     0.73800
Zr933      Zr  0.99820439  0.06917627  0.95420902     2.77500
O934        O  0.00306237  0.07486531  0.88310505    -0.96900
O935        O  0.99613689  0.13024219  0.97569331    -0.77700
Zr936      Zr  0.99730963  0.46592310  0.93823629     2.70100
O937        O  0.51234795  0.47561293  0.86972805    -0.79000
O938        O  0.99500133  0.40308392  0.94273789    -0.98100
Zr939      Zr  0.07007258  0.00954203  0.00381008     2.21500
Zr940      Zr  0.42492346  0.01234328  0.50185297     2.11100
O941        O  0.46279186  0.01851918  0.94527963    -2.46700
O942        O  0.03236515  0.01643167  0.94716088    -0.78800
O943        O  0.46282468  0.06132334  0.51049338    -0.71000
O944        O  0.03202836  0.46083084  0.99569657    -2.31900
O945        O  0.03301133  0.06023745  0.01125354    -2.28100
O946        O  0.46128834  0.46244819  0.49444526    -0.72700
H947        H  0.44746109  0.00280896  0.58211537     0.79300
H948        H  0.04598565  0.44012145  0.99244048     0.80400
H949        H  0.44918530  0.02057494  0.92160955     0.82600
H950        H  0.04712885  0.08053003  0.01546849     0.80200
H951        H  0.01744530  0.38685568  0.51772074     0.43200
H952        H  0.47357131  0.39855117  0.95624068     0.42200
H953        H  0.01640358  0.45132441  0.85772152     0.41900
H954        H  0.48012908  0.08750122  0.87562482     0.39800
H955        H  0.47534341  0.13413578  0.99173492     0.43000
H956        H  0.01985030  0.12622233  0.55811692     0.37700
H957        H  0.97446305  0.06385783  0.64813516     0.43900
H958        H  0.47253577  0.46451089  0.63058162     0.40300
H959        H  0.51929940  0.09504941  0.87967638     0.45200
H960        H  0.99863789  0.12626031  0.59763566     0.43900
H961        H  0.98217122  0.42269020  0.62564744     0.44000
H962        H  0.49535242  0.39373692  0.91725114     0.44400
O963        O  0.17474500  0.21099691  0.84134510    -0.74500
O964        O  0.20370657  0.16433563  0.81326264    -0.53400
C965        C  0.18022420  0.17762981  0.83884343     0.79300
O966        O  0.17130666  0.31221956  0.67132462    -0.59100
O967        O  0.19924564  0.35882027  0.70029800    -0.52100
C968        C  0.17502048  0.34554302  0.67638418     0.71300
O969        O  0.18301323  0.19831828  0.66740228    -0.73600
O970        O  0.20675243  0.15667660  0.70584131    -0.54200
C971        C  0.18705807  0.16598362  0.67590867     0.77300
O972        O  0.17929667  0.32603562  0.82978402    -0.58800
O973        O  0.20464235  0.36821140  0.79370150    -0.51900
C974        C  0.18289209  0.35840059  0.82097210     0.73900
Zr975      Zr  0.19734133  0.26519998  0.81121130     2.54700
O976        O  0.13556101  0.26238363  0.80104040    -0.79300
O977        O  0.20030736  0.26959956  0.88332671    -0.92800
Zr978      Zr  0.19729399  0.25742580  0.69533598     2.64700
O979        O  0.13591785  0.25766055  0.70970750    -0.97700
O980        O  0.19892276  0.25763974  0.62314628    -0.79800
O981        O  0.19744616  0.22527412  0.75502488    -0.83100
O982        O  0.19864203  0.29698992  0.75147722    -2.17800
O983        O  0.31123953  0.32535953  0.83801385    -0.66500
O984        O  0.28759707  0.36710547  0.79978963    -0.51100
C985        C  0.30720553  0.35776623  0.82974651     0.72300
O986        O  0.31717198  0.19611776  0.67888810    -0.59400
O987        O  0.29070650  0.15385810  0.71367465    -0.51400
C988        C  0.31328941  0.16367149  0.68735925     0.74100
O989        O  0.31914839  0.31136498  0.66347357    -0.70800
O990        O  0.29079789  0.35823934  0.69199919    -0.49500
C991        C  0.31380013  0.34473477  0.66594987     0.75400
O992        O  0.32324880  0.21046695  0.83467534    -0.66100
O993        O  0.29617094  0.16390629  0.80444066    -0.53300
C994        C  0.32006809  0.17710412  0.82876284     0.73800
Zr995      Zr  0.29811822  0.26566805  0.81035451     2.77500
O996        O  0.35870168  0.26086925  0.79253764    -0.96900
O997        O  0.30339231  0.26815299  0.88230589    -0.77700
Zr998      Zr  0.29791882  0.25721496  0.69480984     2.70100
O999        O  0.35991635  0.26092900  0.70242471    -0.79000
O1000       O  0.29440628  0.24691772  0.62322059    -0.98100
Zr1001     Zr  0.24722970  0.18718888  0.75866584     2.21500
Zr1002     Zr  0.24767868  0.33568045  0.74720507     2.11100
O1003       O  0.29788445  0.29784729  0.75065128    -2.46700
O1004       O  0.29613062  0.22596197  0.75464730    -0.78800
O1005       O  0.24745446  0.30073060  0.80637922    -0.71000
O1006       O  0.24772027  0.22184635  0.69920573    -2.31900
O1007       O  0.24794791  0.22989053  0.81380824    -2.28100
O1008       O  0.24751907  0.29291932  0.69233948    -0.72700
H1009       H  0.17803590  0.31098992  0.75122675     0.79300
H1010       H  0.24819258  0.20608643  0.67615334     0.80400
H1011       H  0.31817462  0.31196299  0.74976299     0.82600
H1012       H  0.24825430  0.21811987  0.83853569     0.80200
H1013       H  0.17524802  0.26364816  0.61512717     0.43200
H1014       H  0.27766651  0.26435582  0.61434846     0.42200
H1015       H  0.36911363  0.25666336  0.67530807     0.41900
H1016       H  0.36412287  0.28112531  0.77671805     0.39800
H1017       H  0.32826464  0.26508576  0.88719428     0.43000
H1018       H  0.17958346  0.28299304  0.89172969     0.37700
H1019       H  0.12560946  0.26537823  0.82797829     0.43900
H1020       H  0.13087726  0.28041294  0.72317597     0.40300
H1021       H  0.37133982  0.26456914  0.81774565     0.45200
H1022       H  0.21973046  0.28546203  0.88917078     0.43900
H1023       H  0.12485242  0.25907009  0.68347627     0.44000
H1024       H  0.31681036  0.25463335  0.61288886     0.44400
C1025       C  0.16268342  0.63924733  0.15035521     0.30800
C1026       C  0.11370446  0.59897653  0.10846076     0.30800
C1027       C  0.16599529  0.63609089  0.10359260    -0.05400
C1028       C  0.16050290  0.60118754  0.16143282    -0.06200
C1029       C  0.12506061  0.64893223  0.15569433    -0.06000
C1030       C  0.13761436  0.61990073  0.08279168    -0.05400
C1031       C  0.13921501  0.57954001  0.13558712    -0.06100
C1032       C  0.10037138  0.62809446  0.13624629    -0.06000
C1033       C  0.14955010  0.60366552  0.04962637    -0.31400
N1034       N  0.18251087  0.59636071  0.05518728     0.15100
C1035       C  0.19361378  0.62020666  0.08358500    -0.31400
H1036       H  0.21928794  0.62116250  0.09526530     0.17000
C1037       C  0.12629920  0.55519583  0.15838123    -0.30400
N1038       N  0.12608132  0.56810341  0.19605494     0.13800
C1039       C  0.15120428  0.59195323  0.19921991    -0.30400
C1040       C  0.07044875  0.64604600  0.13888137    -0.30700
N1041       N  0.07623305  0.67606870  0.15964762     0.14300
H1042       H  0.04803799  0.64108481  0.12119349     0.16900
C1043       C  0.10910672  0.67778053  0.17084547    -0.30700
H1044       H  0.12098266  0.70010793  0.18469205     0.16900
H1045       H  0.15591023  0.60782809  0.22572592     0.16900
H1046       H  0.13294903  0.58904020  0.03025565     0.17000
H1047       H  0.10669885  0.53792054  0.14640688     0.16900
N1048       N  0.49770988  0.71677491  0.15123305    -0.35800
N1049       N  0.04469472  0.74713635  0.10350931    -0.56300
N1050       N  0.49381053  0.79244978  0.07049439    -0.35800
N1051       N  0.44541034  0.74844510  0.11115839    -0.56300
C1052       C  0.02584620  0.71010824  0.17001260     0.27800
C1053       C  0.47125229  0.71079347  0.17503821     0.27800
C1054       C  0.01892732  0.81183881  0.08444481     0.27800
C1055       C  0.46410857  0.80876513  0.07973875     0.27800
C1056       C  0.06577079  0.72342133  0.11741396     0.36400
C1057       C  0.06367531  0.76855329  0.08318619     0.36400
C1058       C  0.42763755  0.72278673  0.12615083     0.36400
C1059       C  0.42684853  0.76052955  0.08157285     0.36400
C1060       C  0.01761859  0.69990703  0.20765049    -0.21100
C1061       C  0.48274382  0.69852112  0.21066407    -0.21100
C1062       C  0.00510971  0.84165245  0.10261588    -0.21100
C1063       C  0.47011919  0.83841850  0.10341281    -0.21100
C1064       C  0.09833950  0.72669634  0.10120018    -0.22100
C1065       C  0.09713401  0.75646478  0.08004520    -0.22100
C1066       C  0.39747569  0.71726222  0.10497500    -0.22100
C1067       C  0.39685556  0.74181937  0.07653090    -0.22100
C1068       C  0.05721057  0.70560316  0.15123524    -0.17500
C1069       C  0.43873678  0.70595829  0.15974162    -0.17500
C1070       C  0.43149020  0.79460370  0.07228535    -0.17500
C1071       C  0.05387229  0.80280053  0.08512061    -0.17500
H1072       H  0.03500473  0.69035833  0.22965974     0.15400
H1073       H  0.46724485  0.68875777  0.23439226     0.15400
H1074       H  0.01781093  0.86153211  0.12066313     0.15400
H1075       H  0.45173831  0.85503383  0.11906868     0.15400
H1076       H  0.12155375  0.71287070  0.10833698     0.13700
H1077       H  0.11906322  0.77019138  0.06882689     0.13700
H1078       H  0.37706465  0.69938374  0.11085417     0.13700
H1079       H  0.37548311  0.74762490  0.05741287     0.13700
H1080       H  0.49604722  0.71684728  0.12042141     0.27000
H1081       H  0.49678571  0.76912380  0.05388300     0.27000
C1082       C  0.37647310  0.90734450  0.07940568     0.30800
C1083       C  0.33645462  0.86767317  0.13314942     0.30800
C1084       C  0.38985810  0.87217637  0.08947008    -0.05400
C1085       C  0.36800337  0.92359519  0.12015628    -0.06200
C1086       C  0.34048522  0.89417187  0.06500693    -0.06000
C1087       C  0.37080686  0.85180697  0.11640720    -0.05400
C1088       C  0.34915491  0.90370191  0.14793356    -0.06100
C1089       C  0.31920402  0.87737728  0.09384024    -0.06000
C1090       C  0.38017854  0.81813572  0.10664057    -0.31400
N1091       N  0.40293125  0.81767122  0.07595378     0.15100
C1092       C  0.40569443  0.84992777  0.06310803    -0.31400
H1093       H  0.42168882  0.85725877  0.03852228     0.17000
C1094       C  0.36512870  0.91011321  0.18333882    -0.30400
N1095       N  0.39321046  0.92978012  0.17738023     0.13800
C1096       C  0.39245336  0.94096385  0.14067805    -0.30400
C1097       C  0.28974564  0.89691850  0.09488402    -0.30700
N1098       N  0.29390844  0.92532370  0.07305470     0.14300
H1099       H  0.27200451  0.89426439  0.11851852     0.16900
C1100       C  0.31943370  0.91591357  0.04802343    -0.30700
H1101       H  0.33103225  0.93159623  0.02823149     0.16900
H1102       H  0.41335127  0.95503021  0.12775381     0.16900
H1103       H  0.37210995  0.79560371  0.12203359     0.17000
H1104       H  0.35853867  0.89712332  0.20980483     0.16900
N1105       N  0.08852444  0.50931343  0.21275154    -0.35800
N1106       N  0.04515001  0.59775314  0.24521654    -0.56300
N1107       N  0.08197669  0.52477148  0.30556446    -0.35800
N1108       N  0.04171279  0.94040473  0.24666909    -0.56300
C1109       C  0.07364739  0.54032864  0.21058274     0.27800
C1110       C  0.06752287  0.98629521  0.19814720     0.27800
C1111       C  0.05930583  0.55093400  0.30184862     0.27800
C1112       C  0.06433214  0.99464825  0.29706920     0.27800
C1113       C  0.07406753  0.60192620  0.22424035     0.36400
C1114       C  0.05375396  0.61089616  0.28095391     0.36400
C1115       C  0.05607295  0.92712297  0.21352412     0.36400
C1116       C  0.06455728  0.93329780  0.27471953     0.36400
C1117       C  0.04197016  0.53731872  0.19298294    -0.21100
C1118       C  0.03861156  0.00212927  0.18444410    -0.21100
C1119       C  0.02791872  0.53837086  0.29119747    -0.21100
C1120       C  0.03061609  0.00240226  0.28762418    -0.21100
C1121       C  0.08876207  0.63259076  0.23881595    -0.22100
C1122       C  0.07221562  0.64053347  0.27440018    -0.22100
C1123       C  0.07056358  0.89614225  0.22344827    -0.22100
C1124       C  0.07970013  0.90205320  0.26255589    -0.22100
C1125       C  0.09232529  0.57078065  0.21358810    -0.17500
C1126       C  0.07605896  0.95170187  0.19355811    -0.17500
C1127       C  0.08123397  0.96203802  0.29439590    -0.17500
C1128       C  0.06859790  0.58581699  0.30560012    -0.17500
H1129       H  0.02626235  0.55860648  0.18389803     0.15400
H1130       H  0.01862494  0.99036743  0.16675842     0.15400
H1131       H  0.00534657  0.55357586  0.28640372     0.15400
H1132       H  0.01047092  0.98480029  0.27956788     0.15400
H1133       H  0.11345057  0.64313857  0.23239295     0.13700
H1134       H  0.08226108  0.65836145  0.29711843     0.13700
H1135       H  0.08349870  0.87776942  0.20363797     0.13700
H1136       H  0.10213318  0.89026936  0.27348811     0.13700
H1137       H  0.11331315  0.50422140  0.22297159     0.27000
H1138       H  0.10838243  0.52725986  0.31025105     0.27000
N1139       N  0.41085730  0.49518207  0.20039130    -0.35800
N1140       N  0.44599895  0.92199846  0.26074810    -0.56300
N1141       N  0.40502025  0.51247200  0.29323368    -0.35800
N1142       N  0.45210090  0.57953639  0.25755227    -0.56300
C1143       C  0.43391874  0.96929227  0.20446344     0.27800
C1144       C  0.42743587  0.52483206  0.20942469     0.27800
C1145       C  0.41948007  0.98034585  0.29594658     0.27800
C1146       C  0.42767123  0.53505756  0.30862800     0.27800
C1147       C  0.43740739  0.90914403  0.22484353     0.36400
C1148       C  0.41671350  0.91886265  0.28125703     0.36400
C1149       C  0.42822059  0.58642570  0.23060957     0.36400
C1150       C  0.43944741  0.59363387  0.29118493     0.36400
C1151       C  0.46509483  0.98100227  0.21721924    -0.21100
C1152       C  0.46129731  0.51697266  0.21840430    -0.21100
C1153       C  0.45052846  0.98233090  0.31522386    -0.21100
C1154       C  0.45551009  0.51830876  0.32384491    -0.21100
C1155       C  0.41782563  0.88019516  0.23102664    -0.22100
C1156       C  0.40097996  0.88884325  0.26620941    -0.22100
C1157       C  0.41395023  0.61804236  0.24298238    -0.22100
C1158       C  0.42507530  0.62464633  0.28131102    -0.22100
C1159       C  0.42380120  0.93472603  0.19996200    -0.17500
C1160       C  0.41080571  0.55761620  0.21192364    -0.17500
C1161       C  0.41978575  0.56990058  0.31280851    -0.17500
C1162       C  0.39972816  0.95060893  0.29248311    -0.17500
H1163       H  0.48708925  0.96532972  0.22344161     0.15400
H1164       H  0.48180187  0.53434117  0.22576408     0.15400
H1165       H  0.46511701  0.96044042  0.32476738     0.15400
H1166       H  0.47543523  0.52955599  0.34211746     0.15400
H1167       H  0.40770044  0.86252184  0.20819707     0.13700
H1168       H  0.37604856  0.87874782  0.27255937     0.13700
H1169       H  0.39088849  0.62969618  0.23357643     0.13700
H1170       H  0.41314252  0.64341116  0.30152109     0.13700
H1171       H  0.38456559  0.49268637  0.19486584     0.27000
H1172       H  0.38065583  0.51805321  0.28206902     0.27000
C1173       C  0.11053588  0.91956697  0.39545172     0.30800
C1174       C  0.15766370  0.88470879  0.34495345     0.30800
C1175       C  0.09593534  0.89366650  0.36392755    -0.05400
C1176       C  0.13327538  0.94270674  0.36970286    -0.06200
C1177       C  0.13563725  0.89531941  0.41511570    -0.06000
C1178       C  0.12029327  0.87499872  0.34031733    -0.05400
C1179       C  0.15418636  0.92465242  0.33975654    -0.06100
C1180       C  0.16242215  0.88159552  0.38990559    -0.06000
C1181       C  0.10505866  0.84649612  0.32372161    -0.31400
N1182       N  0.07274766  0.84647344  0.33711018     0.15100
C1183       C  0.06659444  0.87489673  0.36110203    -0.31400
H1184       H  0.04484317  0.87762694  0.38088924     0.17000
C1185       C  0.14128272  0.93788913  0.30478424    -0.30400
N1186       N  0.11480927  0.96020248  0.31296684     0.13800
C1187       C  0.11607313  0.96834410  0.35174268    -0.30400
C1188       C  0.19194232  0.89166187  0.40899355    -0.30700
N1189       N  0.18312135  0.91109844  0.44160802     0.14300
H1190       H  0.21674001  0.89195480  0.39475175     0.16900
C1191       C  0.14998441  0.90543225  0.44924581    -0.30700
H1192       H  0.13510874  0.91954955  0.47146044     0.16900
H1193       H  0.09574127  0.98311045  0.36670472     0.16900
H1194       H  0.11739687  0.82502823  0.30776714     0.17000
H1195       H  0.14575022  0.92554216  0.27616428     0.16900
N1196       N  0.50105012  0.72885612  0.43502406    -0.35800
N1197       N  0.04875712  0.77264384  0.39320600    -0.56300
N1198       N  0.49813631  0.80384520  0.35113995    -0.35800
N1199       N  0.45069620  0.77375923  0.39567235    -0.56300
C1200       C  0.02955325  0.71303523  0.42719093     0.27800
C1201       C  0.47605328  0.71003557  0.41728584     0.27800
C1202       C  0.02418662  0.81072213  0.32826604     0.27800
C1203       C  0.47003590  0.81420731  0.33232688     0.27800
C1204       C  0.06666164  0.76115556  0.42370542     0.36400
C1205       C  0.06680646  0.79827664  0.37844177     0.36400
C1206       C  0.43230817  0.75369476  0.41826181     0.36400
C1207       C  0.43026698  0.79908699  0.38444005     0.36400
C1208       C  0.02285576  0.68280054  0.40477890    -0.21100
C1209       C  0.48964201  0.68126864  0.39672041    -0.21100
C1210       C  0.01320688  0.82414780  0.29296122    -0.21100
C1211       C  0.47861183  0.82621233  0.29557782    -0.21100
C1212       C  0.09651088  0.77991172  0.42926938    -0.22100
C1213       C  0.09646757  0.80408948  0.40051249    -0.22100
C1214       C  0.39972134  0.76728570  0.42424105    -0.22100
C1215       C  0.39870622  0.79737471  0.40359488    -0.22100
C1216       C  0.06230638  0.72719939  0.43329054    -0.17500
C1217       C  0.44132134  0.71938218  0.41745430    -0.17500
C1218       C  0.43876315  0.81853911  0.35182522    -0.17500
C1219       C  0.05638778  0.81532052  0.34461783    -0.17500
H1220       H  0.04074587  0.66549376  0.38933675     0.15400
H1221       H  0.47665166  0.66292214  0.37685500     0.15400
H1222       H  0.02910107  0.83446101  0.26990925     0.15400
H1223       H  0.46171984  0.83817668  0.27473060     0.15400
H1224       H  0.11748130  0.77435033  0.44906273     0.13700
H1225       H  0.11694651  0.82207453  0.39529137     0.13700
H1226       H  0.37820044  0.75500291  0.43827837     0.13700
H1227       H  0.37611811  0.81324526  0.39986229     0.13700
H1228       H  0.49836267  0.75232425  0.45143216     0.27000
H1229       H  0.50001170  0.80315745  0.38187555     0.27000
C1230       C  0.34304709  0.65361279  0.35731332     0.30800
C1231       C  0.37801317  0.61408384  0.41473402     0.30800
C1232       C  0.38106368  0.66304581  0.36593684    -0.05400
C1233       C  0.32863865  0.65595173  0.39880939    -0.06200
C1234       C  0.34591118  0.61383722  0.34927220    -0.06000
C1235       C  0.39820017  0.64150448  0.39384883    -0.05400
C1236       C  0.34803256  0.63954463  0.42951376    -0.06100
C1237       C  0.36056880  0.59386566  0.38033608    -0.06000
C1238       C  0.41933114  0.66221031  0.41560500    -0.31400
N1239       N  0.41782433  0.69417136  0.40291148     0.15100
C1240       C  0.39476938  0.69574121  0.37309989    -0.31400
H1241       H  0.38663122  0.71938980  0.35980404     0.17000
C1242       C  0.32276765  0.63039658  0.45341931    -0.30400
N1243       N  0.29379687  0.62439477  0.43172647     0.13800
C1244       C  0.29485424  0.64751566  0.40374637    -0.30400
C1245       C  0.37827046  0.56728894  0.36286384    -0.30700
N1246       N  0.38505281  0.57598524  0.32598951     0.14300
H1247       H  0.39503936  0.55033509  0.37893291     0.16900
C1248       C  0.36185276  0.60032564  0.31582254    -0.30700
H1249       H  0.36186796  0.61396635  0.28894624     0.16900
H1250       H  0.27565927  0.64974653  0.38113705     0.16900
H1251       H  0.43240046  0.65574863  0.44259582     0.17000
H1252       H  0.32980305  0.61791490  0.47954107     0.16900
N1253       N  0.28380537  0.98344439  0.02387305    -0.35800
N1254       N  0.24056509  0.98172383  0.11149815    -0.56300
N1255       N  0.21647456  0.94497062  0.01730480    -0.35800
N1256       N  0.24443079  0.97909355  0.45291826    -0.56300
C1257       C  0.29954681  0.98658755  0.05938146     0.27800
C1258       C  0.30689681  0.97958753  0.49539236     0.27800
C1259       C  0.20429744  0.95679498  0.05231304     0.27800
C1260       C  0.19178151  0.95537523  0.49043061     0.27800
C1261       C  0.27218343  0.97223055  0.12108622     0.36400
C1262       C  0.22129439  0.95391110  0.11861226     0.36400
C1263       C  0.27400350  0.97435195  0.43471942     0.36400
C1264       C  0.22088692  0.96215768  0.43117042     0.36400
C1265       C  0.33344033  0.99375619  0.05182397    -0.21100
C1266       C  0.33842696  0.98663321  0.51178941    -0.21100
C1267       C  0.17311444  0.97289386  0.04809282    -0.21100
C1268       C  0.16363834  0.96915895  0.50917904    -0.21100
C1269       C  0.26851636  0.95094270  0.15301108    -0.22100
C1270       C  0.23510391  0.93857728  0.15119459    -0.22100
C1271       C  0.26741247  0.96409850  0.39551568    -0.22100
C1272       C  0.23299327  0.95604952  0.39315276    -0.22100
C1273       C  0.29225527  0.96180537  0.08766798    -0.17500
C1274       C  0.30043461  0.96193944  0.45813873    -0.17500
C1275       C  0.19502828  0.94534318  0.45141888    -0.17500
C1276       C  0.20884532  0.93653148  0.08372964    -0.17500
H1277       H  0.35342239  0.99689669  0.07388356     0.15400
H1278       H  0.36177576  0.98935797  0.49575609     0.15400
H1279       H  0.15570945  0.98145642  0.07158045     0.15400
H1280       H  0.13955921  0.97481911  0.49568302     0.15400
H1281       H  0.28913296  0.93824795  0.16827370     0.13700
H1282       H  0.22594808  0.91637055  0.16633812     0.13700
H1283       H  0.28576896  0.95860797  0.37248384     0.13700
H1284       H  0.22017946  0.94368207  0.36801785     0.13700
H1285       H  0.25777186  0.98412516  0.02068056     0.27000
H1286       H  0.23730027  0.92801792  0.01232684     0.27000
N1287       N  0.21141488  0.53996489  0.98181000    -0.35800
N1288       N  0.25051172  0.54446797  0.05497980    -0.56300
N1289       N  0.27781334  0.58026961  0.98997824    -0.35800
N1290       N  0.25647910  0.54156672  0.39521922    -0.56300
C1291       C  0.18826391  0.54307623  0.01126225     0.27800
C1292       C  0.19653477  0.53770417  0.44593922     0.27800
C1293       C  0.30068578  0.57129496  0.01638702     0.27800
C1294       C  0.29061038  0.56818483  0.45534745     0.27800
C1295       C  0.22056490  0.54807536  0.07262121     0.36400
C1296       C  0.27277068  0.56366796  0.07620750     0.36400
C1297       C  0.22500267  0.55029890  0.38422342     0.36400
C1298       C  0.27532598  0.56972831  0.38845318     0.36400
C1299       C  0.15681298  0.53593168  0.99460436    -0.21100
C1300       C  0.16257689  0.53106689  0.45360055    -0.21100
C1301       C  0.32873221  0.55657018  0.99845316    -0.21100
C1302       C  0.32140256  0.55112811  0.45881018    -0.21100
C1303       C  0.22650563  0.55893618  0.11181136    -0.22100
C1304       C  0.26027093  0.56962503  0.11411379    -0.22100
C1305       C  0.22929293  0.57079668  0.35173889    -0.22100
C1306       C  0.26227665  0.58415732  0.35490037    -0.22100
C1307       C  0.19442522  0.56055126  0.04868225    -0.17500
C1308       C  0.20403301  0.56149727  0.41666220    -0.17500
C1309       C  0.28576180  0.58799476  0.42368406    -0.17500
C1310       C  0.29739298  0.58161769  0.05517825    -0.17500
H1311       H  0.13321438  0.53360121  0.01028526     0.15400
H1312       H  0.14260042  0.52776767  0.43155170     0.15400
H1313       H  0.35274829  0.55115485  0.01221405     0.15400
H1314       H  0.33813751  0.54198350  0.43492036     0.15400
H1315       H  0.20770848  0.56351214  0.13461592     0.13700
H1316       H  0.27198177  0.58341106  0.13904768     0.13700
H1317       H  0.20885980  0.58263740  0.33523044     0.13700
H1318       H  0.27133832  0.60639076  0.33974295     0.13700
H1319       H  0.23761197  0.53974669  0.98515029     0.27000
H1320       H  0.25704701  0.59729894  0.99487421     0.27000
C1321       C  0.33131122  0.88308476  0.35619247     0.30800
C1322       C  0.38042571  0.92373282  0.39740734     0.30800
C1323       C  0.36906703  0.87366956  0.35043239    -0.05400
C1324       C  0.33280455  0.92115867  0.34543345    -0.06200
C1325       C  0.32834608  0.88619330  0.40298719    -0.06000
C1326       C  0.39377998  0.89479088  0.36932197    -0.05400
C1327       C  0.35428580  0.94295627  0.37081395    -0.06100
C1328       C  0.35693989  0.90250459  0.42338405    -0.06000
C1329       C  0.42433420  0.87791719  0.36476406    -0.31400
N1330       N  0.41871797  0.84771453  0.34420812     0.15100
C1331       C  0.38535007  0.84505948  0.33495508    -0.31400
H1332       H  0.37342919  0.82198987  0.32299003     0.17000
C1333       C  0.36628635  0.96747613  0.34769087    -0.30400
N1334       N  0.36601734  0.95445671  0.30999675     0.13800
C1335       C  0.34082805  0.93072177  0.30750495    -0.30400
C1336       C  0.34529450  0.91876008  0.45664716    -0.30700
N1337       N  0.31229733  0.92612559  0.45145795     0.14300
H1338       H  0.36206534  0.93346586  0.47575254     0.16900
C1339       C  0.30088310  0.90230674  0.42321140    -0.30700
H1340       H  0.27518084  0.90181425  0.41154076     0.16900
H1341       H  0.33530222  0.91517735  0.28098578     0.16900
H1342       H  0.44765122  0.88390432  0.38058293     0.17000
H1343       H  0.38585522  0.98492758  0.35932220     0.16900
C1344       C  0.33780588  0.63757555  0.16253544     0.30800
C1345       C  0.38389085  0.60218151  0.11127657     0.30800
C1346       C  0.37543635  0.64590150  0.16765700    -0.05400
C1347       C  0.33973238  0.59737485  0.16654958    -0.06200
C1348       C  0.33329719  0.64184154  0.11793427    -0.06000
C1349       C  0.39927286  0.62691331  0.14349124    -0.05400
C1350       C  0.36041989  0.57921116  0.13645014    -0.06100
C1351       C  0.35948511  0.62763981  0.09233428    -0.06000
C1352       C  0.42816326  0.64640156  0.14430987    -0.31400
N1353       N  0.42268550  0.67488768  0.16825031     0.15100
C1354       C  0.39096239  0.67469775  0.18322848    -0.31400
H1355       H  0.37886546  0.69645685  0.19894201     0.17000
C1356       C  0.37663659  0.55268273  0.15408629    -0.30400
N1357       N  0.37736968  0.55990235  0.19310848     0.13800
C1358       C  0.35143592  0.58284993  0.20133408    -0.30400
C1359       C  0.34450589  0.61909371  0.05807388    -0.30700
N1360       N  0.31102417  0.61501854  0.06562009     0.14300
H1361       H  0.35874327  0.60509659  0.03525680     0.16900
C1362       C  0.30322334  0.63398074  0.09880132    -0.30700
H1363       H  0.27839388  0.63452434  0.11307196     0.16900
H1364       H  0.34684970  0.59467086  0.23022962     0.16900
H1365       H  0.44837055  0.64446755  0.12255374     0.17000
H1366       H  0.39692092  0.53778487  0.13919252     0.16900
C1367       C  0.11810412  0.61502709  0.42478224     0.30800
C1368       C  0.15677168  0.65488893  0.36973223     0.30800
C1369       C  0.15430908  0.62870583  0.43806480    -0.05400
C1370       C  0.12578514  0.59874167  0.38382411    -0.06200
C1371       C  0.10435699  0.65006370  0.41492171    -0.06000
C1372       C  0.17480182  0.64525349  0.40838211    -0.05400
C1373       C  0.14391317  0.61867091  0.35533975    -0.06100
C1374       C  0.12263038  0.67052544  0.38736250    -0.06000
C1375       C  0.20442781  0.62601320  0.40647806    -0.31400
N1376       N  0.20147760  0.59831811  0.42963563     0.15100
C1377       C  0.17634249  0.60801158  0.45515983    -0.31400
H1378       H  0.16667360  0.59377045  0.47764910     0.17000
C1379       C  0.12703257  0.61194998  0.32049417    -0.30400
N1380       N  0.09941857  0.59182418  0.32740820     0.18400
C1381       C  0.10102627  0.58100366  0.36420629    -0.30400
C1382       C  0.11288411  0.70407215  0.39705031    -0.30700
N1383       N  0.09087778  0.70432705  0.42847351     0.14300
H1384       H  0.12016817  0.72661902  0.38117392     0.16900
C1385       C  0.08890162  0.67218473  0.44167024    -0.30700
H1386       H  0.07368956  0.66481469  0.46688557     0.16900
H1387       H  0.08047447  0.56681788  0.37780529     0.16900
H1388       H  0.22140787  0.62838074  0.38197242     0.17000
H1389       H  0.13270531  0.62495669  0.29378158     0.16900
C1390       C  0.15171101  0.86861740  0.14704467     0.30800
C1391       C  0.11702910  0.90867370  0.09001928     0.30800
C1392       C  0.11370645  0.85918789  0.13789841    -0.05400
C1393       C  0.14889903  0.90821130  0.15564196    -0.06200
C1394       C  0.16655781  0.86691270  0.10571635    -0.06000
C1395       C  0.09685471  0.88081015  0.10996967    -0.05400
C1396       C  0.13415714  0.92849103  0.12496010    -0.06100
C1397       C  0.14736048  0.88367951  0.07508408    -0.06000
C1398       C  0.07612749  0.86013860  0.08748064    -0.31400
N1399       N  0.07709432  0.82819438  0.10025700     0.15100
C1400       C  0.09985526  0.82659321  0.13042666    -0.31400
H1401       H  0.10769131  0.80299044  0.14391307     0.17000
C1402       C  0.11674084  0.95497525  0.14293229    -0.30400
N1403       N  0.11064483  0.94616332  0.17997287     0.13800
C1404       C  0.13367114  0.92154262  0.18954186    -0.30400
C1405       C  0.17294708  0.89383453  0.05219117    -0.30700
N1406       N  0.20141054  0.90005957  0.07468385     0.14300
H1407       H  0.16620510  0.90645974  0.02617914     0.16900
C1408       C  0.20026133  0.87615923  0.10180410    -0.30700
H1409       H  0.21894417  0.87374589  0.12488330     0.16900
H1410       H  0.13362893  0.90766331  0.21634017     0.16900
H1411       H  0.06362902  0.86670386  0.06016415     0.17000
H1412       H  0.09968364  0.97194520  0.12725750     0.16900
O1413       O  0.05315734  0.57975017  0.09384792    -0.74500
O1414       O  0.09528363  0.55070332  0.05902855    -0.53400
C1415       C  0.08542416  0.57473055  0.08548972     0.79300
O1416       O  0.43782981  0.92492972  0.06202321    -0.59100
O1417       O  0.39674173  0.96081541  0.03886696    -0.52100
C1418       C  0.40524627  0.93197905  0.05641268     0.71300
O1419       O  0.05644962  0.92873760  0.06956170    -0.73600
O1420       O  0.09960954  0.96049237  0.04401573    -0.54200
C1421       C  0.08960962  0.93382504  0.06457285     0.77300
O1422       O  0.44240634  0.58411784  0.08977502    -0.58800
O1423       O  0.39920570  0.55572689  0.05656366    -0.51900
C1424       C  0.41010656  0.57951568  0.08301502     0.73900
Zr1425     Zr  0.99708467  0.55691644  0.06768530     2.54700
O1426       O  0.98434393  0.54330657  0.13548062    -0.79300
O1427       O  0.99722983  0.62006390  0.06842252    -0.92800
Zr1428     Zr  0.99661845  0.95255698  0.05201867     2.64700
O1429       O  0.99243851  0.94594806  0.12326497    -0.97700
O1430       O  0.49629613  0.89172563  0.03500523    -0.79800
O1431       O  0.03164430  0.50500381  0.06073589    -0.83100
O1432       O  0.46174751  0.50563148  0.05957361    -2.17800
O1433       O  0.43850764  0.59364107  0.43519933    -0.66500
O1434       O  0.39518827  0.56251905  0.46142232    -0.51100
C1435       C  0.40533322  0.58896593  0.44050467     0.72300
O1436       O  0.05193034  0.93749717  0.41646613    -0.59400
O1437       O  0.09494916  0.96641763  0.44947051    -0.51400
C1438       C  0.08416335  0.94229620  0.42329599     0.74100
O1439       O  0.44097764  0.94290628  0.41187892    -0.70800
O1440       O  0.39901124  0.97219602  0.44665905    -0.49500
C1441       C  0.40875095  0.94808262  0.42023237     0.75400
O1442       O  0.05677190  0.59808026  0.44363286    -0.66100
O1443       O  0.09791420  0.56183228  0.46605648    -0.53300
C1444       C  0.08942973  0.59069786  0.44852466     0.73800
Zr1445     Zr  0.99787559  0.57003665  0.45459223     2.77500
O1446       O  0.00239941  0.57600058  0.38323838    -0.96900
O1447       O  0.99588475  0.63146950  0.47440921    -0.77700
Zr1448     Zr  0.99737352  0.96524164  0.43842319     2.70100
O1449       O  0.51105719  0.97346836  0.36890364    -0.79000
O1450       O  0.99589827  0.90254454  0.44458562    -0.98100
Zr1451     Zr  0.06983784  0.51021735  0.50396271     2.21500
Zr1452     Zr  0.42472293  0.51276599  0.00217404     2.11100
O1453       O  0.46225344  0.51799059  0.44449256    -2.46700
O1454       O  0.03235495  0.51753962  0.44709089    -0.78800
O1455       O  0.46260933  0.56199396  0.01115706    -0.71000
O1456       O  0.03215057  0.95991073  0.49576060    -2.31900
O1457       O  0.03261568  0.56079748  0.51170215    -2.28100
O1458       O  0.46194114  0.96307667  0.99518280    -0.72700
H1459       H  0.44732835  0.50377111  0.08277951     0.79300
H1460       H  0.04595876  0.93913538  0.49253472     0.80400
H1461       H  0.44861292  0.52016527  0.42087201     0.82600
H1462       H  0.04668180  0.58115508  0.51608106     0.80200
H1463       H  0.01707393  0.88724166  0.01572364     0.43200
H1464       H  0.47166516  0.89684776  0.45163426     0.42200
H1465       H  0.01478834  0.94892571  0.35782016     0.41900
H1466       H  0.51206919  0.60044352  0.38031614     0.39800
H1467       H  0.47402970  0.63233004  0.49186905     0.43000
H1468       H  0.01963556  0.62682648  0.05726693     0.37700
H1469       H  0.97553146  0.56520068  0.14820433     0.43900
H1470       H  0.47236799  0.96607903  0.13090117     0.40300
H1471       H  0.52151240  0.56105150  0.37450472     0.45200
H1472       H  0.99845888  0.62704464  0.09683198     0.43900
H1473       H  0.01379761  0.93367961  0.13039566     0.44000
H1474       H  0.49610799  0.89296902  0.41462934     0.44400
O1475       O  0.17517534  0.71179061  0.34199183    -0.74500
O1476       O  0.20292235  0.66485723  0.31275504    -0.53400
C1477       C  0.17992267  0.67832047  0.33885945     0.79300
O1478       O  0.17162219  0.81189703  0.17051262    -0.59100
O1479       O  0.19912613  0.85853946  0.20006544    -0.52100
C1480       C  0.17512141  0.84518385  0.17593868     0.71300
O1481       O  0.18265929  0.69843942  0.16735414    -0.73600
O1482       O  0.20647471  0.65679305  0.20570921    -0.54200
C1483       C  0.18665559  0.66612119  0.17593606     0.77300
O1484       O  0.17904615  0.82641534  0.32848807    -0.58800
O1485       O  0.20463196  0.86871617  0.29290006    -0.51900
C1486       C  0.18264638  0.85879964  0.31991404     0.73900
Zr1487     Zr  0.19757941  0.76564091  0.31087690     2.54700
O1488       O  0.13589121  0.76122926  0.30093151    -0.79300
O1489       O  0.20103105  0.77395171  0.38271204    -0.92800
Zr1490     Zr  0.19757234  0.75747010  0.19487029     2.64700
O1491       O  0.13620268  0.75740879  0.20866088    -0.97700
O1492       O  0.20059160  0.75852716  0.12280862    -0.79800
O1493       O  0.19760113  0.72573266  0.25473178    -0.83100
O1494       O  0.19876697  0.79717047  0.25095838    -2.17800
O1495       O  0.31180893  0.82409073  0.33810575    -0.66500
O1496       O  0.28768751  0.86595762  0.30036396    -0.51100
C1497       C  0.30743679  0.85643748  0.33015772     0.72300
O1498       O  0.31726440  0.69629629  0.17874349    -0.59400
O1499       O  0.29052056  0.65412182  0.21346945    -0.51400
C1500       C  0.31320990  0.66391282  0.18728710     0.74100
O1501       O  0.31852727  0.81114296  0.16175806    -0.70800
O1502       O  0.29085619  0.85815240  0.19098102    -0.49500
C1503       C  0.31344331  0.84454674  0.16443214     0.75400
O1504       O  0.32311564  0.71048538  0.33403331    -0.66100
O1505       O  0.29561403  0.66394279  0.30434632    -0.53300
C1506       C  0.31961038  0.67717733  0.32849527     0.73800
Zr1507     Zr  0.29818061  0.76535656  0.30941219     2.77500
O1508       O  0.35854400  0.76080649  0.29024926    -0.96900
O1509       O  0.30139945  0.76819835  0.38153667    -0.77700
Zr1510     Zr  0.29782691  0.75726599  0.19405890     2.70100
O1511       O  0.35985246  0.76116054  0.20141761    -0.79000
O1512       O  0.29358912  0.74724788  0.12247133    -0.98100
Zr1513     Zr  0.24696697  0.68729474  0.25832061     2.21500
Zr1514     Zr  0.24782906  0.83580112  0.24667852     2.11100
O1515       O  0.29785680  0.79781807  0.24991451    -2.46700
O1516       O  0.29600575  0.72576326  0.25378412    -0.78800
O1517       O  0.24781706  0.80070400  0.30550806    -0.71000
O1518       O  0.24774961  0.72169911  0.19861789    -2.31900
O1519       O  0.24792053  0.72991911  0.31339666    -2.28100
O1520       O  0.24761146  0.79307490  0.19189056    -0.72700
H1521       H  0.17815476  0.81108907  0.25061836     0.79300
H1522       H  0.24815013  0.70588585  0.17558129     0.80400
H1523       H  0.31824219  0.81199023  0.24898799     0.82600
H1524       H  0.24826126  0.71820700  0.33812054     0.80200
H1525       H  0.17638854  0.76021920  0.11411761     0.43200
H1526       H  0.28215016  0.76827021  0.11283642     0.42200
H1527       H  0.36904007  0.75585183  0.17448741     0.41900
H1528       H  0.36398240  0.78179184  0.27566328     0.39800
H1529       H  0.32611507  0.76531058  0.38747080     0.43000
H1530       H  0.17753027  0.78100893  0.39108355     0.37700
H1531       H  0.12592121  0.76521725  0.32773764     0.43900
H1532       H  0.13100810  0.78016858  0.22202095     0.40300
H1533       H  0.37160037  0.76318372  0.31530543     0.45200
H1534       H  0.21502943  0.79512447  0.38718869     0.43900
H1535       H  0.12540243  0.75876308  0.18227863     0.44000
H1536       H  0.31754060  0.74870122  0.11275122     0.44400
C1537       C  0.16328130  0.63979703  0.65040523     0.30800
C1538       C  0.11452066  0.59889408  0.60865389     0.30800
C1539       C  0.16654386  0.63656685  0.60363571    -0.05400
C1540       C  0.16138897  0.60178415  0.66155002    -0.06200
C1541       C  0.12555966  0.64929020  0.65559888    -0.06000
C1542       C  0.13816312  0.62014781  0.58292338    -0.05400
C1543       C  0.14044482  0.57979815  0.63567665    -0.06100
C1544       C  0.10102925  0.62795678  0.63647706    -0.06000
C1545       C  0.15010277  0.60402432  0.54973577    -0.31400
N1546       N  0.18310585  0.59686000  0.55525058     0.15100
C1547       C  0.19419959  0.62069021  0.58366492    -0.31400
H1548       H  0.21985338  0.62149628  0.59547241     0.17000
C1549       C  0.12797527  0.55528698  0.65853219    -0.30400
N1550       N  0.12705156  0.56857031  0.69603288     0.13800
C1551       C  0.15186998  0.59272836  0.69931816    -0.30400
C1552       C  0.07075411  0.64521375  0.63961667    -0.30700
N1553       N  0.07618089  0.67549385  0.65995028     0.14300
H1554       H  0.04815811  0.63958022  0.62257738     0.16900
C1555       C  0.10925779  0.67818415  0.67026674    -0.30700
H1556       H  0.12092672  0.70135554  0.68256000     0.16900
H1557       H  0.15609569  0.60890492  0.72570581     0.16900
H1558       H  0.13351432  0.58935537  0.53038180     0.17000
H1559       H  0.10885738  0.53749009  0.64647954     0.16900
N1560       N  0.49650318  0.71798415  0.65104722    -0.35800
N1561       N  0.04386547  0.74800276  0.60654759    -0.56300
N1562       N  0.49377085  0.79146104  0.56826392    -0.35800
N1563       N  0.44452629  0.74963982  0.61080882    -0.56300
C1564       C  0.02532126  0.70887634  0.67222828     0.27800
C1565       C  0.47012910  0.71332902  0.67549636     0.27800
C1566       C  0.01862633  0.81208624  0.58613605     0.27800
C1567       C  0.46428979  0.80862912  0.57664830     0.27800
C1568       C  0.06444133  0.72316654  0.61871199     0.36400
C1569       C  0.06280374  0.76876796  0.58531072     0.36400
C1570       C  0.42622076  0.72492863  0.62696224     0.36400
C1571       C  0.42645829  0.76084846  0.58038995     0.36400
C1572       C  0.01744559  0.69603287  0.70878098    -0.21100
C1573       C  0.48172509  0.70139156  0.71124031    -0.21100
C1574       C  0.00467923  0.84120100  0.60565896    -0.21100
C1575       C  0.47095715  0.83890367  0.59901838    -0.21100
C1576       C  0.09652349  0.72551989  0.60088720    -0.22100
C1577       C  0.09574494  0.75575124  0.58058806    -0.22100
C1578       C  0.39597901  0.71928158  0.60600233    -0.22100
C1579       C  0.39603361  0.74263768  0.57624340    -0.22100
C1580       C  0.05615920  0.70445070  0.65197339    -0.17500
C1581       C  0.43746009  0.70834563  0.66064500    -0.17500
C1582       C  0.43129112  0.79467422  0.57035776    -0.17500
C1583       C  0.05351251  0.80305105  0.58655425    -0.17500
H1584       H  0.03480220  0.68388762  0.72889709     0.15400
H1585       H  0.46622140  0.69246406  0.73542828     0.15400
H1586       H  0.01744003  0.86058337  0.62438196     0.15400
H1587       H  0.45310172  0.85640295  0.61416205     0.15400
H1588       H  0.11935338  0.71034163  0.60591470     0.13700
H1589       H  0.11764218  0.76869675  0.56815965     0.13700
H1590       H  0.37518808  0.70207384  0.61272502     0.13700
H1591       H  0.37474835  0.74829991  0.55693005     0.13700
H1592       H  0.49450971  0.71742027  0.62024484     0.27000
H1593       H  0.49631001  0.76753407  0.55277027     0.27000
C1594       C  0.37679156  0.90729746  0.57980911     0.30800
C1595       C  0.33787492  0.86769324  0.63459976     0.30800
C1596       C  0.39039274  0.87226152  0.58956548    -0.05400
C1597       C  0.36910197  0.92365645  0.62072845    -0.06200
C1598       C  0.34059706  0.89373125  0.56629316    -0.06000
C1599       C  0.37206840  0.85195408  0.61721405    -0.05400
C1600       C  0.35059123  0.90388729  0.64895575    -0.06100
C1601       C  0.31995057  0.87714474  0.59579653    -0.06000
C1602       C  0.38119151  0.81834826  0.60703212    -0.31400
N1603       N  0.40292972  0.81785349  0.57533812     0.15100
C1604       C  0.40520041  0.85003266  0.56235544    -0.31400
H1605       H  0.42026070  0.85732391  0.53698542     0.17000
C1606       C  0.36699932  0.91045319  0.68403846    -0.30400
N1607       N  0.39511970  0.92992378  0.67754143     0.13800
C1608       C  0.39402526  0.94090469  0.64074034    -0.30400
C1609       C  0.29038489  0.89646882  0.59751819    -0.30700
N1610       N  0.29383588  0.92451326  0.57499455     0.14300
H1611       H  0.27329620  0.89406819  0.62189702     0.16900
C1612       C  0.31879849  0.91470895  0.54933885    -0.30700
H1613       H  0.32932863  0.92961875  0.52808476     0.16900
H1614       H  0.41484325  0.95489900  0.62744049     0.16900
H1615       H  0.37377015  0.79590195  0.62299077     0.17000
H1616       H  0.36053215  0.89774064  0.71070431     0.16900
N1617       N  0.08972913  0.50960113  0.71290055    -0.35800
N1618       N  0.04550660  0.59757961  0.74433202    -0.56300
N1619       N  0.08329945  0.52489820  0.80495796    -0.35800
N1620       N  0.04251249  0.94006838  0.74773208    -0.56300
C1621       C  0.07461176  0.54043265  0.70992565     0.27800
C1622       C  0.06694383  0.98624650  0.69839935     0.27800
C1623       C  0.06033612  0.55075984  0.80093846     0.27800
C1624       C  0.06571693  0.99495421  0.79649584     0.27800
C1625       C  0.07437682  0.60210503  0.72335784     0.36400
C1626       C  0.05404455  0.61068086  0.78010369     0.36400
C1627       C  0.05624244  0.92691543  0.71416604     0.36400
C1628       C  0.06630012  0.93346661  0.77493164     0.36400
C1629       C  0.04252307  0.53680349  0.69349507    -0.21100
C1630       C  0.03780042  0.00197297  0.68510386    -0.21100
C1631       C  0.02882165  0.53775519  0.79132785    -0.21100
C1632       C  0.03145830  0.00212332  0.78888884    -0.21100
C1633       C  0.08877961  0.63286978  0.73811066    -0.22100
C1634       C  0.07217572  0.64051906  0.77370985    -0.22100
C1635       C  0.07127723  0.89609859  0.72375120    -0.22100
C1636       C  0.08161110  0.90238586  0.76239221    -0.22100
C1637       C  0.09291911  0.57113554  0.71262617    -0.17500
C1638       C  0.07576539  0.95166051  0.69380597    -0.17500
C1639       C  0.08304708  0.96259804  0.79366694    -0.17500
C1640       C  0.06935238  0.58572359  0.80446485    -0.17500
H1641       H  0.02642032  0.55769362  0.68408068     0.15400
H1642       H  0.01763056  0.99023826  0.66778040     0.15400
H1643       H  0.00593260  0.55258412  0.78664924     0.15400
H1644       H  0.01121780  0.98410268  0.78238600     0.15400
H1645       H  0.11332267  0.64375244  0.73177037     0.13700
H1646       H  0.08197088  0.65842776  0.79649667     0.13700
H1647       H  0.08390583  0.87783225  0.70358240     0.13700
H1648       H  0.10470761  0.89105024  0.77229572     0.13700
H1649       H  0.11478069  0.50487707  0.72250937     0.27000
H1650       H  0.10975174  0.52764101  0.80913779     0.27000
N1651       N  0.41228629  0.49599197  0.70026875    -0.35800
N1652       N  0.44743894  0.92341651  0.76133399    -0.56300
N1653       N  0.40695770  0.51391117  0.79335234    -0.35800
N1654       N  0.45312308  0.58036649  0.75780404    -0.56300
C1655       C  0.43559485  0.96995388  0.70402077     0.27800
C1656       C  0.42890816  0.52558439  0.70927866     0.27800
C1657       C  0.42043758  0.98150289  0.79559549     0.27800
C1658       C  0.42932710  0.53641081  0.80949795     0.27800
C1659       C  0.43922267  0.91009502  0.72553797     0.36400
C1660       C  0.41807206  0.92013126  0.78171541     0.36400
C1661       C  0.42926452  0.58708122  0.73078589     0.36400
C1662       C  0.44044895  0.59480150  0.79130988     0.36400
C1663       C  0.46697497  0.98207400  0.71552485    -0.21100
C1664       C  0.46293609  0.51783086  0.71750748    -0.21100
C1665       C  0.45116626  0.98361717  0.81554898    -0.21100
C1666       C  0.45697519  0.51954521  0.82514836    -0.21100
C1667       C  0.41978498  0.88106515  0.73200615    -0.22100
C1668       C  0.40271240  0.88981805  0.76704178    -0.22100
C1669       C  0.41473617  0.61863504  0.74290930    -0.22100
C1670       C  0.42577223  0.62561194  0.78117348    -0.22100
C1671       C  0.42571193  0.93526017  0.70003506    -0.17500
C1672       C  0.41209163  0.55820871  0.71206961    -0.17500
C1673       C  0.42122248  0.57121259  0.81360392    -0.17500
C1674       C  0.40074527  0.95180015  0.79235246    -0.17500
H1675       H  0.48931830  0.96663285  0.72071194     0.15400
H1676       H  0.48342905  0.53544055  0.72431936     0.15400
H1677       H  0.46546372  0.96194157  0.82628323     0.15400
H1678       H  0.47688667  0.53051402  0.84374516     0.15400
H1679       H  0.40984717  0.86315383  0.70930271     0.13700
H1680       H  0.37775169  0.87972225  0.77326551     0.13700
H1681       H  0.39155108  0.62995606  0.73345281     0.13700
H1682       H  0.41361358  0.64439076  0.80124177     0.13700
H1683       H  0.38589738  0.49353593  0.69538487     0.27000
H1684       H  0.38273532  0.51953225  0.78181996     0.27000
C1685       C  0.11111215  0.92038451  0.89487314     0.30800
C1686       C  0.15789834  0.88509604  0.84438701     0.30800
C1687       C  0.09625689  0.89482058  0.86329360    -0.05400
C1688       C  0.13415241  0.94332838  0.86920652    -0.06200
C1689       C  0.13599246  0.89586083  0.91443316    -0.06000
C1690       C  0.12038591  0.87591446  0.83957874    -0.05400
C1691       C  0.15512629  0.92510607  0.83943566    -0.06100
C1692       C  0.16253381  0.88177423  0.88922047    -0.06000
C1693       C  0.10487645  0.84737402  0.82343032    -0.31400
N1694       N  0.07274222  0.84755063  0.83739306     0.15100
C1695       C  0.06693236  0.87605134  0.86123989    -0.31400
H1696       H  0.04555281  0.87877529  0.88152629     0.17000
C1697       C  0.14304600  0.93876367  0.80435891    -0.30400
N1698       N  0.11664740  0.96123092  0.81221054     0.13800
C1699       C  0.11743225  0.96917488  0.85107983    -0.30400
C1700       C  0.19230343  0.89088959  0.90836393    -0.30700
N1701       N  0.18394297  0.91015600  0.94121895     0.14300
H1702       H  0.21717067  0.89065480  0.89421381     0.16900
C1703       C  0.15056327  0.90552576  0.94857477    -0.30700
H1704       H  0.13593326  0.91953414  0.97101408     0.16900
H1705       H  0.09694056  0.98388522  0.86582096     0.16900
H1706       H  0.11693440  0.82585754  0.80727737     0.17000
H1707       H  0.14794003  0.92666070  0.77569782     0.16900
N1708       N  0.50129860  0.73028171  0.93591910    -0.35800
N1709       N  0.04856312  0.77313942  0.89273399    -0.56300
N1710       N  0.49699235  0.80409932  0.85418840    -0.35800
N1711       N  0.44993756  0.77525192  0.90111854    -0.56300
C1712       C  0.02976460  0.71309248  0.92605818     0.27800
C1713       C  0.47626631  0.71058399  0.91947642     0.27800
C1714       C  0.02395995  0.81235683  0.82809803     0.27800
C1715       C  0.46864705  0.81336983  0.83516889     0.27800
C1716       C  0.06671577  0.76131378  0.92292596     0.36400
C1717       C  0.06626481  0.79934383  0.87867439     0.36400
C1718       C  0.43127172  0.75367259  0.92151649     0.36400
C1719       C  0.42877174  0.79910325  0.88770477     0.36400
C1720       C  0.02325188  0.68308929  0.90316941    -0.21100
C1721       C  0.49001652  0.68103659  0.90060497    -0.21100
C1722       C  0.01347408  0.82656919  0.79303660    -0.21100
C1723       C  0.47685405  0.82517947  0.79821412    -0.21100
C1724       C  0.09625378  0.78042888  0.92904214    -0.22100
C1725       C  0.09582291  0.80517959  0.90093187    -0.22100
C1726       C  0.39775872  0.76555479  0.92495330    -0.22100
C1727       C  0.39629875  0.79550932  0.90408689    -0.22100
C1728       C  0.06246756  0.72728260  0.93240814    -0.17500
C1729       C  0.44134447  0.71951776  0.91943619    -0.17500
C1730       C  0.43744026  0.81788475  0.85460395    -0.17500
C1731       C  0.05596564  0.81668232  0.84501149    -0.17500
H1732       H  0.04129185  0.66613306  0.88743862     0.15400
H1733       H  0.47716224  0.66155995  0.88210590     0.15400
H1734       H  0.02963126  0.83776049  0.77080691     0.15400
H1735       H  0.45960895  0.83648979  0.77725221     0.15400
H1736       H  0.11718376  0.77496001  0.94892793     0.13700
H1737       H  0.11596851  0.82366465  0.89622504     0.13700
H1738       H  0.37600574  0.75170743  0.93641775     0.13700
H1739       H  0.37305175  0.80953273  0.89760380     0.13700
H1740       H  0.49855961  0.75427163  0.95123448     0.27000
H1741       H  0.49891316  0.80396922  0.88494116     0.27000
C1742       C  0.34373551  0.65381900  0.85804999     0.30800
C1743       C  0.37794521  0.61385746  0.91570000     0.30800
C1744       C  0.38174087  0.66299657  0.86728046    -0.05400
C1745       C  0.32872243  0.65572633  0.89923162    -0.06200
C1746       C  0.34660745  0.61411182  0.84965576    -0.06000
C1747       C  0.39837999  0.64149174  0.89556857    -0.05400
C1748       C  0.34774768  0.63919839  0.93012844    -0.06100
C1749       C  0.36100933  0.59388523  0.88070080    -0.06000
C1750       C  0.41916465  0.66225621  0.91783370    -0.31400
N1751       N  0.41820913  0.69406416  0.90463486     0.15100
C1752       C  0.39571709  0.69551498  0.87424554    -0.31400
H1753       H  0.38814108  0.71902988  0.86028990     0.17000
C1754       C  0.32213921  0.62978339  0.95333898    -0.30400
N1755       N  0.29350011  0.62365902  0.93109068     0.13800
C1756       C  0.29490904  0.64682466  0.90321160    -0.30400
C1757       C  0.37914634  0.56769394  0.86307505    -0.30700
N1758       N  0.38629368  0.57689859  0.82645024     0.14300
H1759       H  0.39586731  0.55070797  0.87915171     0.16900
C1760       C  0.36288204  0.60101521  0.81624246    -0.30700
H1761       H  0.36283945  0.61480395  0.78944775     0.16900
H1762       H  0.27615770  0.64883327  0.88008440     0.16900
H1763       H  0.43159430  0.65595536  0.94527887     0.17000
H1764       H  0.32879603  0.61760192  0.97968434     0.16900
N1765       N  0.28411067  0.98216788  0.52521162    -0.35800
N1766       N  0.24062821  0.98154714  0.61061565    -0.56300
N1767       N  0.21451070  0.94546666  0.51648481    -0.35800
N1768       N  0.24490578  0.97962208  0.95172368    -0.56300
C1769       C  0.30023159  0.98538064  0.56047847     0.27800
C1770       C  0.30695211  0.98112810  0.99437005     0.27800
C1771       C  0.20313219  0.95722156  0.55181290     0.27800
C1772       C  0.19378667  0.95404132  0.99071165     0.27800
C1773       C  0.27187847  0.97212889  0.62166209     0.36400
C1774       C  0.22096861  0.95404586  0.61770823     0.36400
C1775       C  0.27452136  0.97568488  0.93344453     0.36400
C1776       C  0.22199937  0.96123610  0.93068759     0.36400
C1777       C  0.33407678  0.99210618  0.55250796    -0.21100
C1778       C  0.33827550  0.98857910  0.01112016    -0.21100
C1779       C  0.17209975  0.97383071  0.54841412    -0.21100
C1780       C  0.16529109  0.96777529  0.00878764    -0.21100
C1781       C  0.26728946  0.95132405  0.65382103    -0.22100
C1782       C  0.23398163  0.93884556  0.65079366    -0.22100
C1783       C  0.26795972  0.96492461  0.89436327    -0.22100
C1784       C  0.23390117  0.95528172  0.89253480    -0.22100
C1785       C  0.29274163  0.96111741  0.58922215    -0.17500
C1786       C  0.30099491  0.96352341  0.95697635    -0.17500
C1787       C  0.19724292  0.94365191  0.95180071    -0.17500
C1788       C  0.20825154  0.93680764  0.58298207    -0.17500
H1789       H  0.35418874  0.99546556  0.57437252     0.15400
H1790       H  0.36185129  0.99139519  0.99547794     0.15400
H1791       H  0.15515536  0.98241442  0.57234641     0.15400
H1792       H  0.14131369  0.97312629  0.99483598     0.15400
H1793       H  0.28750817  0.93881482  0.67000238     0.13700
H1794       H  0.22435426  0.91680477  0.66586584     0.13700
H1795       H  0.28629379  0.96018523  0.87112535     0.13700
H1796       H  0.22144549  0.94211995  0.86767285     0.13700
H1797       H  0.25808646  0.98153020  0.52248265     0.27000
H1798       H  0.23488961  0.92807096  0.51088323     0.27000
N1799       N  0.21240267  0.54134943  0.48143572    -0.35800
N1800       N  0.25133398  0.54461713  0.55449815    -0.56300
N1801       N  0.27939159  0.58054013  0.49051349    -0.35800
N1802       N  0.25578575  0.54050418  0.89548339    -0.56300
C1803       C  0.18925828  0.54378633  0.51097241     0.27800
C1804       C  0.19558477  0.53611868  0.94632724     0.27800
C1805       C  0.30229349  0.57070009  0.51643305     0.27800
C1806       C  0.28963145  0.56770576  0.95515040     0.27800
C1807       C  0.22151914  0.54879518  0.57231142     0.36400
C1808       C  0.27419279  0.56273103  0.57606138     0.36400
C1809       C  0.22412880  0.54856598  0.88455125     0.36400
C1810       C  0.27427280  0.56882177  0.88828378     0.36400
C1811       C  0.15784787  0.53679483  0.49418175    -0.21100
C1812       C  0.16159208  0.52971266  0.95407842    -0.21100
C1813       C  0.33008595  0.55613028  0.49785700    -0.21100
C1814       C  0.32057097  0.55110528  0.95934041    -0.21100
C1815       C  0.22769298  0.55931371  0.61156610    -0.22100
C1816       C  0.26182350  0.56866228  0.61401922    -0.22100
C1817       C  0.22797525  0.56891689  0.85187191    -0.22100
C1818       C  0.26081789  0.58281523  0.85467251    -0.22100
C1819       C  0.19527536  0.56117008  0.54850409    -0.17500
C1820       C  0.20315340  0.55980032  0.91694302    -0.17500
C1821       C  0.28517042  0.58728778  0.92322642    -0.17500
C1822       C  0.29931312  0.58034974  0.55543708    -0.17500
H1823       H  0.13425215  0.53437784  0.50988651     0.15400
H1824       H  0.14162354  0.52621240  0.93206707     0.15400
H1825       H  0.35412915  0.55023771  0.51132471     0.15400
H1826       H  0.33771137  0.54200162  0.93582144     0.15400
H1827       H  0.20903838  0.56447587  0.63440592     0.13700
H1828       H  0.27403561  0.58172630  0.63911295     0.13700
H1829       H  0.20723855  0.58044689  0.83556757     0.13700
H1830       H  0.26928622  0.60527673  0.83948432     0.13700
H1831       H  0.23811733  0.54087489  0.48469173     0.27000
H1832       H  0.25886511  0.59777463  0.49602665     0.27000
C1833       C  0.33156457  0.88447992  0.85579919     0.30800
C1834       C  0.38084531  0.92484923  0.89717977     0.30800
C1835       C  0.36923918  0.87490551  0.85009764    -0.05400
C1836       C  0.33336355  0.92256935  0.84503825    -0.06200
C1837       C  0.32862086  0.88752653  0.90259595    -0.06000
C1838       C  0.39411240  0.89586050  0.86909679    -0.05400
C1839       C  0.35488732  0.94425612  0.87053829    -0.06100
C1840       C  0.35720143  0.90376328  0.92308077    -0.06000
C1841       C  0.42408411  0.87775677  0.86649136    -0.31400
N1842       N  0.41801350  0.84734950  0.84660122     0.15100
C1843       C  0.38497922  0.84552119  0.83606691    -0.31400
H1844       H  0.37274801  0.82262779  0.82426175     0.17000
C1845       C  0.36719595  0.96870627  0.84747129    -0.30400
N1846       N  0.36702066  0.95565172  0.80980725     0.13800
C1847       C  0.34174003  0.93201520  0.80714464    -0.30400
C1848       C  0.34548810  0.92011929  0.95626463    -0.30700
N1849       N  0.31253965  0.92753758  0.95092203     0.14300
H1850       H  0.36217552  0.93497389  0.97530017     0.16900
C1851       C  0.30116800  0.90358158  0.92280689    -0.30700
H1852       H  0.27545509  0.90285427  0.91123170     0.16900
H1853       H  0.33653337  0.91627175  0.78067497     0.16900
H1854       H  0.44698770  0.88320628  0.88330468     0.17000
H1855       H  0.38683855  0.98607083  0.85912989     0.16900
C1856       C  0.33820412  0.63763968  0.66274496     0.30800
C1857       C  0.38486840  0.60281518  0.61170654     0.30800
C1858       C  0.37569635  0.64648048  0.66800334    -0.05400
C1859       C  0.34069035  0.59748513  0.66688034    -0.06200
C1860       C  0.33380716  0.64172705  0.61802698    -0.06000
C1861       C  0.39993589  0.62793646  0.64388416    -0.05400
C1862       C  0.36159159  0.57960657  0.63681761    -0.06100
C1863       C  0.36029273  0.62786567  0.59256311    -0.06000
C1864       C  0.42827457  0.64838804  0.64450798    -0.31400
N1865       N  0.42214101  0.67671368  0.66861522     0.15100
C1866       C  0.39056767  0.67553241  0.68379109    -0.31400
H1867       H  0.37806988  0.69669346  0.70006081     0.17000
C1868       C  0.37795285  0.55313823  0.65432605    -0.30400
N1869       N  0.37861158  0.56026594  0.69335426     0.13800
C1870       C  0.35249780  0.58298625  0.70164956    -0.30400
C1871       C  0.34561641  0.61874851  0.55827538    -0.30700
N1872       N  0.31227328  0.61400942  0.56583865     0.14300
H1873       H  0.36005089  0.60473823  0.53558044     0.16900
C1874       C  0.30399357  0.63306176  0.59880962    -0.30700
H1875       H  0.27914400  0.63318564  0.61299845     0.16900
H1876       H  0.34777642  0.59463379  0.73062412     0.16900
H1877       H  0.44867316  0.64683505  0.62287209     0.17000
H1878       H  0.39833346  0.53840508  0.63939298     0.16900
C1879       C  0.11806259  0.61481022  0.92383956     0.30800
C1880       C  0.15753073  0.65484016  0.86986790     0.30800
C1881       C  0.15416910  0.62797132  0.93778820    -0.05400
C1882       C  0.12613568  0.59880393  0.88283295    -0.06200
C1883       C  0.10466972  0.65009388  0.91425788    -0.06000
C1884       C  0.17519111  0.64446299  0.90858859    -0.05400
C1885       C  0.14435904  0.61898988  0.85473918    -0.06100
C1886       C  0.12346247  0.67072475  0.88737713    -0.06000
C1887       C  0.20437970  0.62449754  0.90684250    -0.31400
N1888       N  0.20069060  0.59667526  0.92975755     0.15100
C1889       C  0.17547534  0.60667692  0.95497847    -0.31400
H1890       H  0.16492714  0.59239789  0.97688082     0.17000
C1891       C  0.12751571  0.61268475  0.81973152    -0.30400
N1892       N  0.10015549  0.59205085  0.82623663     0.18400
C1893       C  0.10177789  0.58092289  0.86290027    -0.30400
C1894       C  0.11380813  0.70431262  0.89730053    -0.30700
N1895       N  0.09115171  0.70438639  0.92811168     0.14300
H1896       H  0.12155824  0.72701685  0.88194233     0.16900
C1897       C  0.08883585  0.67207122  0.94086008    -0.30700
H1898       H  0.07307756  0.66447495  0.96552882     0.16900
H1899       H  0.08133242  0.56641014  0.87626382     0.16900
H1900       H  0.22162915  0.62681983  0.88263794     0.17000
H1901       H  0.13300218  0.62622683  0.79331712     0.16900
C1902       C  0.15197043  0.86886454  0.64738402     0.30800
C1903       C  0.11662245  0.90879346  0.59055715     0.30800
C1904       C  0.11394538  0.85928885  0.63853719    -0.05400
C1905       C  0.14898568  0.90859009  0.65583529    -0.06200
C1906       C  0.16646894  0.86717782  0.60583317    -0.06000
C1907       C  0.09670737  0.88094195  0.61089352    -0.05400
C1908       C  0.13392409  0.92875104  0.62521999    -0.06100
C1909       C  0.14691329  0.88389101  0.57541104    -0.06000
C1910       C  0.07562259  0.86032190  0.58888451    -0.31400
N1911       N  0.07689129  0.82833980  0.60150634     0.15100
C1912       C  0.10011397  0.82663107  0.63120916    -0.31400
H1913       H  0.10821872  0.80292823  0.64445658     0.17000
C1914       C  0.11641332  0.95520798  0.64317910    -0.30400
N1915       N  0.11046087  0.94643189  0.68023351     0.13800
C1916       C  0.13382124  0.92204243  0.68972461    -0.30400
C1917       C  0.17207808  0.89416552  0.55203528    -0.30700
N1918       N  0.20081254  0.90033685  0.57405293     0.14300
H1919       H  0.16472483  0.90738687  0.52663199     0.16900
C1920       C  0.20009933  0.87645730  0.60126849    -0.30700
H1921       H  0.21917040  0.87406776  0.62394565     0.16900
H1922       H  0.13423022  0.90832373  0.71656606     0.16900
H1923       H  0.06281790  0.86684978  0.56176692     0.17000
H1924       H  0.09918644  0.97203825  0.62754106     0.16900
O1925       O  0.05389531  0.57905757  0.59417643    -0.74500
O1926       O  0.09609508  0.55037335  0.55908258    -0.53400
C1927       C  0.08623152  0.57431370  0.58570222     0.79300
O1928       O  0.43811738  0.92378819  0.56096159    -0.59100
O1929       O  0.39722754  0.96048775  0.53916716    -0.52100
C1930       C  0.40555577  0.93144699  0.55624120     0.71300
O1931       O  0.05596738  0.92865032  0.56994537    -0.73600
O1932       O  0.09901961  0.96070630  0.54472133    -0.54200
C1933       C  0.08910370  0.93389461  0.56511119     0.77300
O1934       O  0.44319107  0.58462806  0.59001148    -0.58800
O1935       O  0.39986733  0.55636994  0.55680793    -0.51900
C1936       C  0.41092235  0.58011563  0.58333034     0.73900
Zr1937     Zr  0.99736570  0.55605356  0.56864142     2.54700
O1938       O  0.98514399  0.54004476  0.63573109    -0.79300
O1939       O  0.99605852  0.61913470  0.57247454    -0.92800
Zr1940     Zr  0.99632969  0.95272417  0.55219869     2.64700
O1941       O  0.99120495  0.94770267  0.62347496    -0.97700
O1942       O  0.49934482  0.89059254  0.53360768    -0.79800
O1943       O  0.03171099  0.50413852  0.56071054    -0.83100
O1944       O  0.46122219  0.50548119  0.55892987    -2.17800
O1945       O  0.43825401  0.59381887  0.93706040    -0.66500
O1946       O  0.39496321  0.56182155  0.96192319    -0.51100
C1947       C  0.40508019  0.58866689  0.94163398     0.72300
O1948       O  0.05243478  0.93782346  0.91635586    -0.59400
O1949       O  0.09549118  0.96700486  0.94900484    -0.51400
C1950       C  0.08470751  0.94293307  0.92282723     0.74100
O1951       O  0.44144697  0.94402419  0.91162792    -0.70800
O1952       O  0.39943330  0.97300196  0.94675576    -0.49500
C1953       C  0.40921152  0.94907931  0.92010088     0.75400
O1954       O  0.05660277  0.59724140  0.94122618    -0.66100
O1955       O  0.09774723  0.56207492  0.96578237    -0.53300
C1956       C  0.08923431  0.59039363  0.94716778     0.73800
Zr1957     Zr  0.99766268  0.56991113  0.95366610     2.77500
O1958       O  0.00076652  0.57794667  0.88245082    -0.96900
O1959       O  0.99603694  0.63039296  0.97757352    -0.77700
Zr1960     Zr  0.99757185  0.96515602  0.93823277     2.70100
O1961       O  0.51185880  0.97768801  0.87019629    -0.79000
O1962       O  0.99614543  0.90214201  0.94137150    -0.98100
Zr1963     Zr  0.06972560  0.51040904  0.00380110     2.21500
Zr1964     Zr  0.42416762  0.51294662  0.50173357     2.11100
O1965       O  0.46306882  0.51846534  0.94524992    -2.46700
O1966       O  0.03203490  0.51724565  0.94695731    -0.78800
O1967       O  0.46238753  0.56175215  0.51025778    -0.71000
O1968       O  0.03242296  0.95978618  0.99558250    -2.31900
O1969       O  0.03251118  0.56100376  0.01073731    -2.28100
O1970       O  0.46192083  0.96172278  0.49473059    -0.72700
H1971       H  0.44678298  0.50384061  0.58208981     0.79300
H1972       H  0.04629375  0.93904217  0.99226023     0.80400
H1973       H  0.44949933  0.52058848  0.92154092     0.82600
H1974       H  0.04660764  0.58129652  0.01483424     0.80200
H1975       H  0.01656065  0.88599897  0.51956124     0.43200
H1976       H  0.47147665  0.89857872  0.95329888     0.42200
H1977       H  0.01618341  0.95161623  0.85743351     0.41900
H1978       H  0.47991701  0.58788172  0.87614521     0.39800
H1979       H  0.47429381  0.63326577  0.99316134     0.43000
H1980       H  0.01790163  0.62674529  0.56063070     0.37700
H1981       H  0.97413925  0.56078701  0.64867029     0.43900
H1982       H  0.47232849  0.93040775  0.62646019     0.40300
H1983       H  0.51810008  0.59909448  0.88151590     0.45200
H1984       H  0.99814782  0.62495882  0.60111065     0.43900
H1985       H  0.01281484  0.93622080  0.63125135     0.44000
H1986       H  0.49540803  0.89417319  0.91588839     0.44400
O1987       O  0.17621861  0.71172935  0.84256289    -0.74500
O1988       O  0.20390962  0.66473344  0.81340146    -0.53400
C1989       C  0.18091265  0.67825469  0.83938716     0.79300
O1990       O  0.17135297  0.81201313  0.67205962    -0.59100
O1991       O  0.20000043  0.85870663  0.69984147    -0.52100
C1992       C  0.17549081  0.84536915  0.67640530     0.71300
O1993       O  0.18296878  0.69886286  0.66820473    -0.73600
O1994       O  0.20706468  0.65713375  0.70609256    -0.54200
C1995       C  0.18716810  0.66654228  0.67636960     0.77300
O1996       O  0.17934359  0.82669564  0.82893159    -0.58800
O1997       O  0.20493659  0.86869862  0.79281794    -0.51900
C1998       C  0.18283869  0.85896080  0.81978473     0.73900
Zr1999     Zr  0.19909463  0.76608593  0.81286941     2.54700
O2000       O  0.13667589  0.76569042  0.81719685    -0.79300
O2001       O  0.21298771  0.77385377  0.88299598    -0.92800
Zr2002     Zr  0.19707462  0.75742732  0.69709737     2.64700
O2003       O  0.13723299  0.75506877  0.71818682    -0.97700
O2004       O  0.19168078  0.75404687  0.62519815    -0.79800
O2005       O  0.19782465  0.72575491  0.75690077    -0.83100
O2006       O  0.19929505  0.79743286  0.75259308    -2.17800
O2007       O  0.31197878  0.82536673  0.83784175    -0.66500
O2008       O  0.28792937  0.86713830  0.79995518    -0.51100
C2009       C  0.30764187  0.85773704  0.82979652     0.72300
O2010       O  0.31705392  0.69623669  0.67862806    -0.59400
O2011       O  0.29093462  0.65410589  0.71397433    -0.51400
C2012       C  0.31331083  0.66386733  0.68740308     0.74100
O2013       O  0.32024026  0.81110923  0.66348778    -0.70800
O2014       O  0.29182404  0.85808896  0.69172099    -0.49500
C2015       C  0.31496903  0.84450931  0.66587106     0.75400
O2016       O  0.32418520  0.71095369  0.83465596    -0.66100
O2017       O  0.29639468  0.66443206  0.80517949    -0.53300
C2018       C  0.32052842  0.67761678  0.82919219     0.73800
Zr2019     Zr  0.29912049  0.76591862  0.81001130     2.77500
O2020       O  0.35993182  0.76121948  0.79304262    -0.96900
O2021       O  0.30126896  0.76971577  0.88213531    -0.77700
Zr2022     Zr  0.29800960  0.75724177  0.69468594     2.70100
O2023       O  0.35995642  0.75920106  0.70352293    -0.79000
O2024       O  0.29317200  0.74742187  0.62318339    -0.98100
Zr2025     Zr  0.24758447  0.68745696  0.75910815     2.21500
Zr2026     Zr  0.24836655  0.83592230  0.74690293     2.11100
O2027       O  0.29851386  0.79803048  0.75022978    -2.46700
O2028       O  0.29648949  0.72606655  0.75451132    -0.78800
O2029       O  0.24889761  0.80143863  0.80620131    -0.71000
O2030       O  0.24773115  0.72210886  0.69980116    -2.31900
O2031       O  0.24916577  0.73004974  0.81426629    -2.28100
O2032       O  0.24742920  0.79273326  0.69250879    -0.72700
H2033       H  0.17880165  0.81153702  0.75238424     0.79300
H2034       H  0.24796517  0.70640608  0.67674746     0.80400
H2035       H  0.31892342  0.81205198  0.74913415     0.82600
H2036       H  0.24976245  0.71823955  0.83895836     0.80200
H2037       H  0.20782512  0.77169177  0.61578145     0.43200
H2038       H  0.27830262  0.76655712  0.61450028     0.42200
H2039       H  0.36943245  0.75597024  0.67640456     0.41900
H2040       H  0.36553295  0.78163585  0.77753718     0.39800
H2041       H  0.32568290  0.76553757  0.88856325     0.43000
H2042       H  0.19046004  0.77354759  0.89666073     0.37700
H2043       H  0.12938659  0.74445486  0.80205038     0.43900
H2044       H  0.13384980  0.77480074  0.73748000     0.40300
H2045       H  0.37238394  0.76456360  0.81841530     0.45200
H2046       H  0.22074407  0.79822302  0.88630324     0.43900
H2047       H  0.12394633  0.76172686  0.69470767     0.44000
H2048       H  0.31623986  0.75275723  0.61269218     0.44400
C2049       C  0.66340270  0.13891590  0.15050627     0.30800
C2050       C  0.61391161  0.09933558  0.10854106     0.30800
C2051       C  0.66682194  0.13556680  0.10366185    -0.05400
C2052       C  0.66061209  0.10101001  0.16172618    -0.06200
C2053       C  0.62584145  0.14919740  0.15566115    -0.06000
C2054       C  0.63817257  0.11985785  0.08285749    -0.05400
C2055       C  0.63902879  0.07966040  0.13588399    -0.06100
C2056       C  0.60088819  0.12882578  0.13613768    -0.06000
C2057       C  0.64970659  0.10358353  0.04949314    -0.31400
N2058       N  0.68257226  0.09573792  0.05478553     0.15100
C2059       C  0.69413027  0.11910989  0.08350464    -0.31400
H2060       H  0.71981115  0.11932218  0.09521697     0.17000
C2061       C  0.62540862  0.05585917  0.15880441    -0.30400
N2062       N  0.62538965  0.06891930  0.19640800     0.13800
C2063       C  0.65088962  0.09231212  0.19956328    -0.30400
C2064       C  0.57058817  0.14601051  0.14129832    -0.30700
N2065       N  0.57664353  0.17543563  0.16329920     0.14300
H2066       H  0.54719690  0.14078258  0.12525396     0.16900
C2067       C  0.60991325  0.17716814  0.17302998    -0.30700
H2068       H  0.62185037  0.19900105  0.18797415     0.16900
H2069       H  0.65576612  0.10828800  0.22593277     0.16900
H2070       H  0.63285769  0.08931482  0.03002152     0.17000
H2071       H  0.60548335  0.03894633  0.14688492     0.16900
N2072       N  0.99668938  0.21778149  0.15318559    -0.35800
N2073       N  0.54498925  0.24978552  0.11250676    -0.56300
N2074       N  0.99343418  0.29250034  0.07087563    -0.35800
N2075       N  0.94435799  0.25026823  0.11390585    -0.56300
C2076       C  0.52583862  0.20894487  0.17586444     0.27800
C2077       C  0.97035011  0.21144395  0.17700557     0.27800
C2078       C  0.51845378  0.31143789  0.08514171     0.27800
C2079       C  0.96394157  0.30950310  0.07934432     0.27800
C2080       C  0.56587573  0.22513742  0.12469180     0.36400
C2081       C  0.56256066  0.26841589  0.08746240     0.36400
C2082       C  0.92683455  0.22406792  0.12822402     0.36400
C2083       C  0.92654133  0.26148520  0.08323587     0.36400
C2084       C  0.51709012  0.19630506  0.21224055    -0.21100
C2085       C  0.98198727  0.19762950  0.21179021    -0.21100
C2086       C  0.50434386  0.34046611  0.10471936    -0.21100
C2087       C  0.97048908  0.34002337  0.10130372    -0.21100
C2088       C  0.59718438  0.22640233  0.10498834    -0.22100
C2089       C  0.59531281  0.25502799  0.08198639    -0.22100
C2090       C  0.89733333  0.21784772  0.10605129    -0.22100
C2091       C  0.89694169  0.24228054  0.07748256    -0.22100
C2092       C  0.55734674  0.20537624  0.15704481    -0.17500
C2093       C  0.93792412  0.20667023  0.16145935    -0.17500
C2094       C  0.93114463  0.29529991  0.07293868    -0.17500
C2095       C  0.55337241  0.30258299  0.08575387    -0.17500
H2096       H  0.53405698  0.18494416  0.23344213     0.15400
H2097       H  0.96655656  0.18701403  0.23506772     0.15400
H2098       H  0.51696859  0.35986238  0.12354157     0.15400
H2099       H  0.95254626  0.35751311  0.11633721     0.15400
H2100       H  0.62003809  0.21107973  0.10938181     0.13700
H2101       H  0.61644990  0.26676215  0.06663096     0.13700
H2102       H  0.87731806  0.19928471  0.11108092     0.13700
H2103       H  0.87606324  0.24742287  0.05740474     0.13700
H2104       H  0.99463350  0.21858037  0.12248485     0.27000
H2105       H  0.99601992  0.26850923  0.05551944     0.27000
C2106       C  0.87605743  0.40782653  0.08084209     0.30800
C2107       C  0.83667559  0.36780901  0.13496673     0.30800
C2108       C  0.88974145  0.37277737  0.09089131    -0.05400
C2109       C  0.86752034  0.42408956  0.12162081    -0.06200
C2110       C  0.84013938  0.39401344  0.06668585    -0.06000
C2111       C  0.87105816  0.35227174  0.11808228    -0.05400
C2112       C  0.84912130  0.40398421  0.14961854    -0.06100
C2113       C  0.81917776  0.37720902  0.09580384    -0.06000
C2114       C  0.88018238  0.31867056  0.10782808    -0.31400
N2115       N  0.90255876  0.31830780  0.07681160     0.15100
C2116       C  0.90503663  0.35057376  0.06400286    -0.31400
H2117       H  0.92060218  0.35797602  0.03908844     0.17000
C2118       C  0.86551607  0.41043126  0.18477700    -0.30400
N2119       N  0.89331216  0.43046691  0.17851350     0.13800
C2120       C  0.89187931  0.44180108  0.14188885    -0.30400
C2121       C  0.78946006  0.39630329  0.09687091    -0.30700
N2122       N  0.79306947  0.42440094  0.07445165     0.14300
H2123       H  0.77187198  0.39369830  0.12071633     0.16900
C2124       C  0.81851141  0.41490774  0.04930515    -0.30700
H2125       H  0.82929513  0.43002977  0.02833868     0.16900
H2126       H  0.91235989  0.45626708  0.12868502     0.16900
H2127       H  0.87219681  0.29605961  0.12311297     0.17000
H2128       H  0.85934365  0.39721253  0.21119292     0.16900
N2129       N  0.58939688  0.00973619  0.21257497    -0.35800
N2130       N  0.54531935  0.09763508  0.24810932    -0.56300
N2131       N  0.58244653  0.02301748  0.30501391    -0.35800
N2132       N  0.54048021  0.44122835  0.24821490    -0.56300
C2133       C  0.57373143  0.04051042  0.21197570     0.27800
C2134       C  0.56729079  0.48720697  0.19983469     0.27800
C2135       C  0.55998837  0.04944236  0.30285479     0.27800
C2136       C  0.56452100  0.49554311  0.29684690     0.27800
C2137       C  0.57373094  0.10222319  0.22636358     0.36400
C2138       C  0.55483393  0.10984901  0.28393716     0.36400
C2139       C  0.55471991  0.42805140  0.21492816     0.36400
C2140       C  0.56361678  0.43402671  0.27592329     0.36400
C2141       C  0.54138930  0.03708977  0.19627260    -0.21100
C2142       C  0.53758414  0.50272761  0.18808415    -0.21100
C2143       C  0.52805017  0.03739023  0.29325049    -0.21100
C2144       C  0.53036859  0.50336246  0.28935009    -0.21100
C2145       C  0.58875441  0.13257818  0.24135114    -0.22100
C2146       C  0.57326938  0.13957500  0.27779909    -0.22100
C2147       C  0.56872756  0.39680440  0.22453763    -0.22100
C2148       C  0.57841978  0.40271225  0.26346051    -0.22100
C2149       C  0.59193536  0.07127048  0.21466442    -0.17500
C2150       C  0.57549557  0.45246875  0.19565990    -0.17500
C2151       C  0.58106088  0.46276404  0.29456441    -0.17500
C2152       C  0.57009000  0.08400317  0.30714091    -0.17500
H2153       H  0.52464751  0.05816287  0.18907067     0.15400
H2154       H  0.51696945  0.49067065  0.17182682     0.15400
H2155       H  0.50539660  0.05288888  0.28976249     0.15400
H2156       H  0.50975384  0.48564931  0.28332469     0.15400
H2157       H  0.61324869  0.14325451  0.23434425     0.13700
H2158       H  0.58398343  0.15675641  0.30073759     0.13700
H2159       H  0.58146439  0.37849296  0.20444249     0.13700
H2160       H  0.60140190  0.39140750  0.27341150     0.13700
H2161       H  0.61460708  0.00496544  0.22159598     0.27000
H2162       H  0.60902350  0.02505952  0.30861320     0.27000
N2163       N  0.91164566  0.99583197  0.19995326    -0.35800
N2164       N  0.94657166  0.42386452  0.26144582    -0.56300
N2165       N  0.90534716  0.01344735  0.29395048    -0.35800
N2166       N  0.95171369  0.08036625  0.25816439    -0.56300
C2167       C  0.93435607  0.47029805  0.20446472     0.27800
C2168       C  0.92787843  0.02558192  0.20935371     0.27800
C2169       C  0.91944324  0.48209319  0.29621750     0.27800
C2170       C  0.92809922  0.03592594  0.30937823     0.27800
C2171       C  0.93812552  0.41050808  0.22572520     0.36400
C2172       C  0.91735831  0.42058953  0.28208613     0.36400
C2173       C  0.92750015  0.08697467  0.23151710     0.36400
C2174       C  0.93927288  0.09454282  0.29190638     0.36400
C2175       C  0.96581151  0.48219130  0.21609664    -0.21100
C2176       C  0.96205795  0.01820411  0.21716813    -0.21100
C2177       C  0.95107689  0.48434409  0.31409938    -0.21100
C2178       C  0.95683323  0.01922140  0.32234563    -0.21100
C2179       C  0.91885057  0.38145992  0.23235855    -0.22100
C2180       C  0.90189639  0.39035285  0.26739472    -0.22100
C2181       C  0.91281061  0.11839789  0.24399869    -0.22100
C2182       C  0.92433504  0.12534498  0.28211849    -0.22100
C2183       C  0.92424865  0.43567387  0.20050987    -0.17500
C2184       C  0.91063279  0.05798326  0.21259856    -0.17500
C2185       C  0.92015582  0.07069543  0.31396888    -0.17500
C2186       C  0.90002279  0.45215606  0.29313266    -0.17500
H2187       H  0.98806375  0.46659270  0.22144370     0.15400
H2188       H  0.98236785  0.03604954  0.22386610     0.15400
H2189       H  0.96623131  0.46264997  0.32313131     0.15400
H2190       H  0.97733949  0.03005920  0.34007903     0.15400
H2191       H  0.90886955  0.36348044  0.20975752     0.13700
H2192       H  0.87689383  0.38039388  0.27356717     0.13700
H2193       H  0.88957902  0.12984991  0.23465942     0.13700
H2194       H  0.91239504  0.14404789  0.30247213     0.13700
H2195       H  0.88527156  0.99304840  0.19520359     0.27000
H2196       H  0.88054856  0.01894515  0.28403280     0.27000
C2197       C  0.60949417  0.41881627  0.39478760     0.30800
C2198       C  0.65699630  0.38424837  0.34450332     0.30800
C2199       C  0.59513097  0.39318598  0.36272440    -0.05400
C2200       C  0.63255877  0.44218398  0.36966174    -0.06200
C2201       C  0.63436132  0.39435676  0.41443262    -0.06000
C2202       C  0.61971510  0.37476262  0.33913643    -0.05400
C2203       C  0.65366379  0.42434794  0.33975124    -0.06100
C2204       C  0.66115604  0.38055762  0.38938346    -0.06000
C2205       C  0.60472852  0.34648933  0.32171671    -0.31400
N2206       N  0.57239098  0.34603811  0.33494446     0.15100
C2207       C  0.56602420  0.37406391  0.35952132    -0.31400
H2208       H  0.54441630  0.37615810  0.37950705     0.17000
C2209       C  0.64102378  0.43812232  0.30487058    -0.30400
N2210       N  0.61466964  0.46063268  0.31308763     0.13800
C2211       C  0.61573069  0.46828886  0.35195705    -0.30400
C2212       C  0.69071359  0.38935690  0.40906556    -0.30700
N2213       N  0.68204890  0.40855109  0.44185930     0.14300
H2214       H  0.71574130  0.38913021  0.39529569     0.16900
C2215       C  0.64861842  0.40380142  0.44887205    -0.30700
H2216       H  0.63385001  0.41782580  0.47123367     0.16900
H2217       H  0.59541554  0.48311121  0.36689423     0.16900
H2218       H  0.61728766  0.32534699  0.30538985     0.17000
H2219       H  0.64561947  0.42609416  0.27613088     0.16900
N2220       N  0.00085195  0.22999922  0.43662318    -0.35800
N2221       N  0.54993327  0.27069208  0.38896710    -0.56300
N2222       N  0.99780602  0.30479658  0.35215722    -0.35800
N2223       N  0.94984079  0.27297203  0.39475987    -0.56300
C2224       C  0.53032204  0.21188409  0.42372609     0.27800
C2225       C  0.97553771  0.21041328  0.42064390     0.27800
C2226       C  0.52340850  0.31079845  0.32695931     0.27800
C2227       C  0.96996920  0.31512775  0.33284514     0.27800
C2228       C  0.56798571  0.25930035  0.41941835     0.36400
C2229       C  0.56773043  0.29653408  0.37437317     0.36400
C2230       C  0.93188729  0.25410270  0.41920443     0.36400
C2231       C  0.92932697  0.29815214  0.38312264     0.36400
C2232       C  0.52344660  0.18189660  0.40099446    -0.21100
C2233       C  0.98887373  0.18094087  0.40122263    -0.21100
C2234       C  0.51165693  0.32490944  0.29239886    -0.21100
C2235       C  0.97907105  0.32849870  0.29696011    -0.21100
C2236       C  0.59788726  0.27798454  0.42480082    -0.22100
C2237       C  0.59764206  0.30219094  0.39611198    -0.22100
C2238       C  0.89927759  0.26777346  0.42481263    -0.22100
C2239       C  0.89788225  0.29686201  0.40254970    -0.22100
C2240       C  0.56317706  0.22566381  0.42990438    -0.17500
C2241       C  0.94079423  0.21985560  0.42076128    -0.17500
C2242       C  0.93827588  0.31845706  0.35139871    -0.17500
C2243       C  0.55626016  0.31461389  0.34180375    -0.17500
H2244       H  0.54129483  0.16457757  0.38547425     0.15400
H2245       H  0.97568699  0.16178527  0.38260481     0.15400
H2246       H  0.52704536  0.33522744  0.26890782     0.15400
H2247       H  0.96243535  0.34087718  0.27619491     0.15400
H2248       H  0.61881001  0.27262682  0.44474433     0.13700
H2249       H  0.61790141  0.32047902  0.39119607     0.13700
H2250       H  0.87797466  0.25609075  0.43992099     0.13700
H2251       H  0.87528105  0.31266415  0.39860249     0.13700
H2252       H  0.99835928  0.25401686  0.45194465     0.27000
H2253       H  0.99902981  0.30330766  0.38284960     0.27000
C2254       C  0.84335744  0.15358143  0.35939395     0.30800
C2255       C  0.87790413  0.11362786  0.41673507     0.30800
C2256       C  0.88123075  0.16312190  0.36890394    -0.05400
C2257       C  0.82817974  0.15504654  0.40057467    -0.06200
C2258       C  0.84644216  0.11391382  0.35090330    -0.06000
C2259       C  0.89801579  0.14167077  0.39707638    -0.05400
C2260       C  0.84734450  0.13844255  0.43138365    -0.06100
C2261       C  0.86110084  0.09373212  0.38173214    -0.06000
C2262       C  0.91835430  0.16257915  0.41983551    -0.31400
N2263       N  0.91712610  0.19449283  0.40690123     0.15100
C2264       C  0.89470844  0.19579482  0.37639877    -0.31400
H2265       H  0.88704269  0.21926890  0.36239623     0.17000
C2266       C  0.82176726  0.12803693  0.45401423    -0.30400
N2267       N  0.79354185  0.12138784  0.43127609     0.13800
C2268       C  0.79457623  0.14522713  0.40406565    -0.30400
C2269       C  0.87886000  0.06735311  0.36406629    -0.30700
N2270       N  0.88542809  0.07635011  0.32725514     0.14300
H2271       H  0.89572417  0.05032244  0.37990805     0.16900
C2272       C  0.86203089  0.10055029  0.31731070    -0.30700
H2273       H  0.86142412  0.11396806  0.29028226     0.16900
H2274       H  0.77610591  0.14721253  0.38068838     0.16900
H2275       H  0.93102897  0.15606460  0.44707143     0.17000
H2276       H  0.82863247  0.11552649  0.48000351     0.16900
N2277       N  0.78292075  0.48202529  0.02452240    -0.35800
N2278       N  0.73972336  0.48122500  0.11180870    -0.56300
N2279       N  0.71547336  0.44369500  0.01719696    -0.35800
N2280       N  0.74343731  0.47730915  0.45313001    -0.56300
C2281       C  0.79874024  0.48539618  0.05999716     0.27800
C2282       C  0.80583011  0.47960644  0.49565738     0.27800
C2283       C  0.70397155  0.45595608  0.05229418     0.27800
C2284       C  0.69134362  0.45283616  0.49085368     0.27800
C2285       C  0.77122708  0.47175000  0.12182789     0.36400
C2286       C  0.72037211  0.45346442  0.11879230     0.36400
C2287       C  0.77310910  0.47369740  0.43493454     0.36400
C2288       C  0.72052104  0.45931255  0.43160422     0.36400
C2289       C  0.83260032  0.49248897  0.05235107    -0.21100
C2290       C  0.83722577  0.48714880  0.51217719    -0.21100
C2291       C  0.67299001  0.47257925  0.04853576    -0.21100
C2292       C  0.66294222  0.46672011  0.50888851    -0.21100
C2293       C  0.76719519  0.45073038  0.15392789    -0.22100
C2294       C  0.73380752  0.43832801  0.15168614    -0.22100
C2295       C  0.76674401  0.46318174  0.39574413    -0.22100
C2296       C  0.73270319  0.45351239  0.39356238    -0.22100
C2297       C  0.79145209  0.46097287  0.08865524    -0.17500
C2298       C  0.79970039  0.46170456  0.45840241    -0.17500
C2299       C  0.69493745  0.44232093  0.45207151    -0.17500
C2300       C  0.70857488  0.43584653  0.08377416    -0.17500
H2301       H  0.85258186  0.49584375  0.07437881     0.15400
H2302       H  0.86074832  0.48956462  0.49634531     0.15400
H2303       H  0.65596480  0.48139749  0.07229594     0.15400
H2304       H  0.63913986  0.47241268  0.49476492     0.15400
H2305       H  0.78764696  0.43816158  0.16962559     0.13700
H2306       H  0.72444593  0.41623718  0.16688273     0.13700
H2307       H  0.78524528  0.45850952  0.37265251     0.13700
H2308       H  0.72034163  0.44058198  0.36847597     0.13700
H2309       H  0.75699048  0.48250203  0.02131109     0.27000
H2310       H  0.73601900  0.42643659  0.01193053     0.27000
N2311       N  0.71046921  0.03992172  0.98026400    -0.35800
N2312       N  0.74979646  0.04254028  0.05364999    -0.56300
N2313       N  0.77949623  0.07712875  0.99076854    -0.35800
N2314       N  0.75469091  0.03963293  0.39475392    -0.56300
C2315       C  0.68756713  0.04272551  0.00995116     0.27800
C2316       C  0.69515917  0.03620263  0.44543411     0.27800
C2317       C  0.80228589  0.06765292  0.01700794     0.27800
C2318       C  0.79110879  0.06475276  0.45405740     0.27800
C2319       C  0.71984135  0.04660053  0.07122172     0.36400
C2320       C  0.77259455  0.06019221  0.07585031     0.36400
C2321       C  0.72334779  0.04894888  0.38393097     0.36400
C2322       C  0.77418127  0.06724365  0.38763716     0.36400
C2323       C  0.65604633  0.03595899  0.99341988    -0.21100
C2324       C  0.66123134  0.02957107  0.45308950    -0.21100
C2325       C  0.83075628  0.05433072  0.99848943    -0.21100
C2326       C  0.82234276  0.04876427  0.45831731    -0.21100
C2327       C  0.72566184  0.05658394  0.11067993    -0.22100
C2328       C  0.75981077  0.06582527  0.11368732    -0.22100
C2329       C  0.72778986  0.06953428  0.35156441    -0.22100
C2330       C  0.76107150  0.08215939  0.35440169    -0.22100
C2331       C  0.69400569  0.05983217  0.04751872    -0.17500
C2332       C  0.70277933  0.06028728  0.41654369    -0.17500
C2333       C  0.78639788  0.08482457  0.42247608    -0.17500
C2334       C  0.79861997  0.07734229  0.05606806    -0.17500
H2335       H  0.63262225  0.03354968  0.00944145     0.15400
H2336       H  0.64133339  0.02597460  0.43099426     0.15400
H2337       H  0.85477517  0.04867784  0.01208765     0.15400
H2338       H  0.83961429  0.03993478  0.43480765     0.15400
H2339       H  0.70671100  0.06162500  0.13326144     0.13700
H2340       H  0.77189482  0.07848087  0.13913693     0.13700
H2341       H  0.70751074  0.08181448  0.33528311     0.13700
H2342       H  0.77053423  0.10420540  0.33918765     0.13700
H2343       H  0.73696752  0.04016701  0.98332966     0.27000
H2344       H  0.75876244  0.09407450  0.99616422     0.27000
C2345       C  0.83133679  0.38363692  0.35633742     0.30800
C2346       C  0.88046905  0.42387318  0.39829715     0.30800
C2347       C  0.86905781  0.37423257  0.35069363    -0.05400
C2348       C  0.83304908  0.42189262  0.34600244    -0.06200
C2349       C  0.82828900  0.38636922  0.40318609    -0.06000
C2350       C  0.89378659  0.39504125  0.37004703    -0.05400
C2351       C  0.85459513  0.44339743  0.37170376    -0.06100
C2352       C  0.85672395  0.40264559  0.42394749    -0.06000
C2353       C  0.92416794  0.37783620  0.36576702    -0.31400
N2354       N  0.91846429  0.34796510  0.34457009     0.15100
C2355       C  0.88522406  0.34576412  0.33475982    -0.31400
H2356       H  0.87331597  0.32318964  0.32151560     0.17000
C2357       C  0.86696567  0.46807036  0.34895624    -0.30400
N2358       N  0.86647505  0.45555246  0.31110265     0.13800
C2359       C  0.84123592  0.43185505  0.30825014    -0.30400
C2360       C  0.84481314  0.41875547  0.45725521    -0.30700
N2361       N  0.81177793  0.42588664  0.45194507     0.14300
H2362       H  0.86136287  0.43360892  0.47647356     0.16900
C2363       C  0.80067519  0.40202765  0.42352814    -0.30700
H2364       H  0.77495618  0.40109970  0.41193248     0.16900
H2365       H  0.83572907  0.41659103  0.28151318     0.16900
H2366       H  0.94727366  0.38333010  0.38215381     0.17000
H2367       H  0.88676362  0.48523100  0.36068569     0.16900
C2368       C  0.83776757  0.13709808  0.16266499     0.30800
C2369       C  0.88421940  0.10179376  0.11177286     0.30800
C2370       C  0.87532054  0.14567011  0.16778938    -0.05400
C2371       C  0.83985460  0.09702510  0.16700937    -0.06200
C2372       C  0.83296222  0.14065205  0.11792182    -0.06000
C2373       C  0.89935776  0.12695883  0.14370750    -0.05400
C2374       C  0.86073293  0.07886064  0.13709577    -0.06100
C2375       C  0.85951416  0.12675728  0.09245698    -0.06000
C2376       C  0.92800152  0.14694702  0.14454919    -0.31400
N2377       N  0.92220447  0.17515525  0.16891148     0.15100
C2378       C  0.89054807  0.17438268  0.18389566    -0.31400
H2379       H  0.87831581  0.19567178  0.20029026     0.17000
C2380       C  0.87667600  0.05238280  0.15485775    -0.30400
N2381       N  0.87715577  0.05970450  0.19389240     0.13800
C2382       C  0.85115840  0.08257851  0.20192262    -0.30400
C2383       C  0.84461062  0.11666611  0.05866617    -0.30700
N2384       N  0.81150586  0.11105024  0.06676699     0.14300
H2385       H  0.85929171  0.10286818  0.03610459     0.16900
C2386       C  0.80311855  0.13049377  0.09944756    -0.30700
H2387       H  0.77853958  0.13010344  0.11419187     0.16900
H2388       H  0.84629419  0.09434002  0.23083075     0.16900
H2389       H  0.94834954  0.14532856  0.12289822     0.17000
H2390       H  0.89703842  0.03753248  0.14006121     0.16900
C2391       C  0.61888852  0.11334754  0.42384883     0.30800
C2392       C  0.65814053  0.15292387  0.36940974     0.30800
C2393       C  0.65460722  0.12772168  0.43818583    -0.05400
C2394       C  0.62818517  0.09628028  0.38365035    -0.06200
C2395       C  0.60485145  0.14792695  0.41274662    -0.06000
C2396       C  0.67555239  0.14416271  0.40879948    -0.05400
C2397       C  0.64612630  0.11636030  0.35515783    -0.06100
C2398       C  0.62353561  0.16823063  0.38548508    -0.06000
C2399       C  0.70522015  0.12490981  0.40768483    -0.31400
N2400       N  0.70162981  0.09701290  0.43040488     0.15100
C2401       C  0.67645641  0.10703476  0.45568181    -0.31400
H2402       H  0.66589297  0.09226603  0.47704145     0.17000
C2403       C  0.62920685  0.10935385  0.32037586    -0.30400
N2404       N  0.60195045  0.08878074  0.32743702     0.18400
C2405       C  0.60439803  0.07739576  0.36393100    -0.30400
C2406       C  0.61391035  0.20183219  0.39477876    -0.30700
N2407       N  0.59143360  0.20236316  0.42568199     0.14300
H2408       H  0.62155609  0.22425608  0.37885860     0.16900
C2409       C  0.58891467  0.17026550  0.43888947    -0.30700
H2410       H  0.57333441  0.16313389  0.46390498     0.16900
H2411       H  0.58435955  0.06262058  0.37764316     0.16900
H2412       H  0.72241642  0.12707623  0.38338604     0.17000
H2413       H  0.63420796  0.12287999  0.29385731     0.16900
C2414       C  0.65087796  0.36827270  0.14814114     0.30800
C2415       C  0.61616882  0.40878604  0.09128060     0.30800
C2416       C  0.61284882  0.35898229  0.13889173    -0.05400
C2417       C  0.64793571  0.40789234  0.15699614    -0.06200
C2418       C  0.66562058  0.36683110  0.10678757    -0.06000
C2419       C  0.59590008  0.38083333  0.11113564    -0.05400
C2420       C  0.63324703  0.42837047  0.12641414    -0.06100
C2421       C  0.64637088  0.38370566  0.07630366    -0.06000
C2422       C  0.57508542  0.36025553  0.08858386    -0.31400
N2423       N  0.57640155  0.32814121  0.10090791     0.15100
C2424       C  0.59922334  0.32640670  0.13099980    -0.31400
H2425       H  0.60730770  0.30270426  0.14417460     0.17000
C2426       C  0.61579546  0.45480620  0.14449281    -0.30400
N2427       N  0.60982081  0.44609438  0.18159477     0.13800
C2428       C  0.63258243  0.42110209  0.19093154    -0.30400
C2429       C  0.67177299  0.39355815  0.05307914    -0.30700
N2430       N  0.70050204  0.39949920  0.07519807     0.14300
H2431       H  0.66482793  0.40618183  0.02714085     0.16900
C2432       C  0.69934554  0.37584916  0.10259408    -0.30700
H2433       H  0.71822722  0.37337963  0.12546132     0.16900
H2434       H  0.63231774  0.40692931  0.21748949     0.16900
H2435       H  0.56247196  0.36697851  0.06142276     0.17000
H2436       H  0.59876318  0.47185949  0.12889009     0.16900
O2437       O  0.55336863  0.08002766  0.09434853    -0.74500
O2438       O  0.59534597  0.05103687  0.05910812    -0.53400
C2439       C  0.58557598  0.07510603  0.08564181     0.79300
O2440       O  0.93760753  0.42539223  0.06329063    -0.59100
O2441       O  0.89653079  0.46096750  0.03952853    -0.52100
C2442       C  0.90496773  0.43236491  0.05760474     0.71300
O2443       O  0.55588024  0.42917117  0.07045179    -0.73600
O2444       O  0.59911446  0.46089538  0.04509042    -0.54200
C2445       C  0.58902059  0.43419345  0.06565588     0.77300
O2446       O  0.94289225  0.08405758  0.08996633    -0.58800
O2447       O  0.89980290  0.05503198  0.05729802    -0.51900
C2448       C  0.91059267  0.07907276  0.08357690     0.73900
Zr2449     Zr  0.49730940  0.05720584  0.06824804     2.54700
O2450       O  0.48550886  0.04640458  0.13707469    -0.79300
O2451       O  0.49893971  0.12023670  0.06457387    -0.92800
Zr2452     Zr  0.49649896  0.45327074  0.05222126     2.64700
O2453       O  0.49193855  0.44955984  0.12373457    -0.97700
O2454       O  0.99790061  0.39220653  0.03153941    -0.79800
O2455       O  0.53164824  0.00503661  0.06111665    -0.83100
O2456       O  0.96204428  0.00508860  0.05928564    -2.17800
O2457       O  0.93844548  0.09353973  0.43684438    -0.66500
O2458       O  0.89544277  0.06158648  0.46231291    -0.51100
C2459       C  0.90535135  0.08844451  0.44202817     0.72300
O2460       O  0.55082654  0.43681204  0.41583622    -0.59400
O2461       O  0.59400524  0.46554042  0.44879576    -0.51400
C2462       C  0.58309880  0.44147336  0.42263822     0.74100
O2463       O  0.94103971  0.44343842  0.41259883    -0.70800
O2464       O  0.89890401  0.47201144  0.44791212    -0.49500
C2465       C  0.90877491  0.44815035  0.42127839     0.75400
O2466       O  0.55704812  0.09677550  0.44173429    -0.66100
O2467       O  0.59779385  0.06073885  0.46525236    -0.53300
C2468       C  0.58964727  0.08937457  0.44720398     0.73800
Zr2469     Zr  0.49807094  0.06918570  0.45388994     2.77500
O2470       O  0.50198926  0.07797119  0.38314815    -0.96900
O2471       O  0.49501993  0.12907201  0.47976748    -0.77700
Zr2472     Zr  0.49665558  0.46575944  0.43740185     2.70100
O2473       O  0.01041087  0.47673051  0.36936353    -0.79000
O2474       O  0.49636609  0.40271487  0.43722957    -0.98100
Zr2475     Zr  0.56982428  0.00932034  0.50333438     2.21500
Zr2476     Zr  0.92490534  0.01232300  0.00206091     2.11100
O2477       O  0.96299290  0.01756168  0.44513963    -2.46700
O2478       O  0.53218202  0.01636765  0.44655732    -0.78800
O2479       O  0.96276797  0.06149206  0.01074051    -0.71000
O2480       O  0.53113152  0.45991520  0.49495031    -2.31900
O2481       O  0.53268238  0.05993119  0.51092438    -2.28100
O2482       O  0.96180303  0.46250114  0.99514137    -0.72700
H2483       H  0.94762519  0.00325799  0.08250056     0.79300
H2484       H  0.54479807  0.43902711  0.49168157     0.80400
H2485       H  0.94936281  0.01957120  0.42147350     0.82600
H2486       H  0.54672336  0.08027145  0.51507475     0.80200
H2487       H  0.51838120  0.38789963  0.01737819     0.43200
H2488       H  0.97371856  0.39741738  0.45048557     0.42200
H2489       H  0.51788305  0.45558256  0.35683451     0.41900
H2490       H  0.97960982  0.08619315  0.37529932     0.39800
H2491       H  0.97388215  0.13159801  0.49391626     0.43000
H2492       H  0.52212997  0.12619898  0.05499714     0.37700
H2493       H  0.47791658  0.06903219  0.14913317     0.43900
H2494       H  0.97207883  0.45988837  0.13137999     0.40300
H2495       H  0.01801173  0.09686974  0.38007354     0.45200
H2496       H  0.49834921  0.12910308  0.09243363     0.43900
H2497       H  0.51324773  0.43752099  0.13149631     0.44000
H2498       H  0.99646098  0.39523677  0.41206512     0.44400
O2499       O  0.67646813  0.21002450  0.34230632    -0.74500
O2500       O  0.70407372  0.16317954  0.31275835    -0.53400
C2501       C  0.68120564  0.17653830  0.33890060     0.79300
O2502       O  0.67093614  0.31113986  0.17154674    -0.59100
O2503       O  0.69869728  0.35780397  0.20072192    -0.52100
C2504       C  0.67447362  0.34451314  0.17682626     0.71300
O2505       O  0.68294109  0.19783837  0.16857936    -0.73600
O2506       O  0.70739906  0.15603371  0.20611668    -0.54200
C2507       C  0.68739199  0.16548899  0.17652065     0.77300
O2508       O  0.67880351  0.32584475  0.32888205    -0.58800
O2509       O  0.70431979  0.36813108  0.29312137    -0.51900
C2510       C  0.68222140  0.35823017  0.31997532     0.73900
Zr2511     Zr  0.69807235  0.26491432  0.31238436     2.54700
O2512       O  0.63553402  0.26326694  0.31098560    -0.79300
O2513       O  0.70804973  0.27210988  0.38346287    -0.92800
Zr2514     Zr  0.69712063  0.25671268  0.19649559     2.64700
O2515       O  0.63612196  0.25651744  0.21298894    -0.97700
O2516       O  0.69734061  0.25254454  0.12434047    -0.79800
O2517       O  0.69767093  0.22477726  0.25625301    -0.83100
O2518       O  0.69878903  0.29640742  0.25234487    -2.17800
O2519       O  0.81208299  0.32444079  0.33807226    -0.66500
O2520       O  0.78762339  0.36617645  0.30040343    -0.51100
C2521       C  0.80754476  0.35681721  0.33013778     0.72300
O2522       O  0.81713519  0.19589523  0.17886713    -0.59400
O2523       O  0.79087044  0.15367157  0.21393835    -0.51400
C2524       C  0.81322040  0.16348374  0.18742816     0.74100
O2525       O  0.81957001  0.31112523  0.16404815    -0.70800
O2526       O  0.79050591  0.35785204  0.19185276    -0.49500
C2527       C  0.81384391  0.34445500  0.16614985     0.75400
O2528       O  0.82389843  0.21062046  0.33551317    -0.66100
O2529       O  0.79613406  0.16404864  0.30613834    -0.53300
C2530       C  0.82017446  0.17728063  0.33030301     0.73800
Zr2531     Zr  0.79842390  0.26517331  0.31037648     2.77500
O2532       O  0.85919082  0.26028878  0.29323226    -0.96900
O2533       O  0.79833603  0.26737713  0.38259454    -0.77700
Zr2534     Zr  0.79771633  0.25687343  0.19481037     2.70100
O2535       O  0.85995753  0.25919857  0.19998049    -0.79000
O2536       O  0.79071768  0.24661303  0.12353360    -0.98100
Zr2537     Zr  0.74761102  0.18670588  0.25913942     2.21500
Zr2538     Zr  0.74764298  0.33524726  0.24729383     2.11100
O2539       O  0.79783592  0.29741243  0.25067305    -2.46700
O2540       O  0.79640330  0.22551194  0.25466180    -0.78800
O2541       O  0.74795561  0.30036953  0.30629549    -0.71000
O2542       O  0.74771806  0.22145077  0.19996091    -2.31900
O2543       O  0.74847123  0.22932274  0.31413494    -2.28100
O2544       O  0.74718567  0.29243178  0.19253168    -0.72700
H2545       H  0.67815741  0.31036771  0.25210157     0.79300
H2546       H  0.74808364  0.20572307  0.17694176     0.80400
H2547       H  0.81819339  0.31152405  0.24970637     0.82600
H2548       H  0.74896809  0.21751524  0.33882966     0.80200
H2549       H  0.71454735  0.26979765  0.11646670     0.43200
H2550       H  0.78943164  0.26992686  0.11239757     0.42200
H2551       H  0.86815764  0.25417512  0.17258931     0.41900
H2552       H  0.86453326  0.28008679  0.27662418     0.39800
H2553       H  0.82283310  0.26538247  0.39001173     0.43000
H2554       H  0.68487405  0.27104283  0.39549900     0.37700
H2555       H  0.62962767  0.24010949  0.29922374     0.43900
H2556       H  0.63150642  0.27856075  0.22816992     0.40300
H2557       H  0.87173281  0.26472894  0.31837499     0.45200
H2558       H  0.71508738  0.29661863  0.38776215     0.43900
H2559       H  0.62433440  0.25936931  0.18738713     0.44000
H2560       H  0.81313397  0.23709930  0.11423518     0.44400
C2561       C  0.66303872  0.13921223  0.64907181     0.30800
C2562       C  0.61395493  0.09918234  0.60694180     0.30800
C2563       C  0.66645327  0.13610406  0.60221776    -0.05400
C2564       C  0.66069924  0.10121774  0.65998320    -0.06200
C2565       C  0.62535384  0.14907349  0.65427802    -0.06000
C2566       C  0.63794521  0.12010121  0.58132829    -0.05400
C2567       C  0.63947379  0.07966821  0.63398749    -0.06100
C2568       C  0.60064266  0.12835152  0.63471226    -0.06000
C2569       C  0.64977012  0.10369477  0.54825033    -0.31400
N2570       N  0.68264538  0.09603259  0.55393279     0.15100
C2571       C  0.69395760  0.11982939  0.58228090    -0.31400
H2572       H  0.71958004  0.12031356  0.59414762     0.17000
C2573       C  0.62651095  0.05531218  0.65667082    -0.30400
N2574       N  0.62602674  0.06831098  0.69430598     0.13800
C2575       C  0.65112843  0.09212005  0.69769781    -0.30400
C2576       C  0.57073168  0.14641421  0.63730537    -0.30700
N2577       N  0.57638626  0.17623086  0.65854880     0.14300
H2578       H  0.54844720  0.14166083  0.61934978     0.16900
C2579       C  0.60934489  0.17789809  0.66956764    -0.30700
H2580       H  0.62124070  0.20018740  0.68341164     0.16900
H2581       H  0.65553420  0.10814218  0.72416457     0.16900
H2582       H  0.63302164  0.08900450  0.52906877     0.17000
H2583       H  0.60706223  0.03791785  0.64458190     0.16900
N2584       N  0.99751914  0.21829793  0.65553185    -0.35800
N2585       N  0.54351637  0.24849987  0.60510182    -0.56300
N2586       N  0.99391683  0.29109452  0.57020216    -0.35800
N2587       N  0.94518601  0.24947258  0.61406499    -0.56300
C2588       C  0.52550139  0.20965980  0.67069715     0.27800
C2589       C  0.97076409  0.21115644  0.67835756     0.27800
C2590       C  0.51703136  0.31267725  0.58412559     0.27800
C2591       C  0.96448630  0.30855470  0.57811501     0.27800
C2592       C  0.56498997  0.22480151  0.61835495     0.36400
C2593       C  0.56179974  0.26958919  0.58356827     0.36400
C2594       C  0.92769020  0.22335352  0.62857160     0.36400
C2595       C  0.92711059  0.26061174  0.58353015     0.36400
C2596       C  0.51748677  0.19821484  0.70786246    -0.21100
C2597       C  0.98183500  0.19762751  0.71352871    -0.21100
C2598       C  0.50294816  0.34169171  0.60370643    -0.21100
C2599       C  0.97140100  0.34000434  0.59789843    -0.21100
C2600       C  0.59720062  0.22824148  0.60131497    -0.22100
C2601       C  0.59529698  0.25774546  0.57978430    -0.22100
C2602       C  0.89803778  0.21714758  0.60659228    -0.22100
C2603       C  0.89748351  0.24146985  0.57801530    -0.22100
C2604       C  0.55679874  0.20579749  0.65139117    -0.17500
C2605       C  0.93865999  0.20611519  0.66198391    -0.17500
C2606       C  0.93148695  0.29435538  0.57313750    -0.17500
C2607       C  0.55191417  0.30373252  0.58521166    -0.17500
H2608       H  0.53491303  0.18757663  0.72909735     0.15400
H2609       H  0.96608868  0.18660606  0.73625619     0.15400
H2610       H  0.51551203  0.36081519  0.62295491     0.15400
H2611       H  0.95377512  0.35822939  0.61225025     0.15400
H2612       H  0.62060704  0.21444600  0.60773658     0.13700
H2613       H  0.61685227  0.27146679  0.56766888     0.13700
H2614       H  0.87795840  0.19869884  0.61166481     0.13700
H2615       H  0.87649314  0.24658930  0.55807773     0.13700
H2616       H  0.99614247  0.21919570  0.62478727     0.27000
H2617       H  0.99631942  0.26633713  0.55659260     0.27000
C2618       C  0.87594458  0.40703642  0.58077586     0.30800
C2619       C  0.83630733  0.36724628  0.63495371     0.30800
C2620       C  0.88912156  0.37166805  0.59034161    -0.05400
C2621       C  0.86806273  0.42301287  0.62183297    -0.06200
C2622       C  0.83969433  0.39396489  0.56702788    -0.06000
C2623       C  0.87047307  0.35135105  0.61766136    -0.05400
C2624       C  0.84931104  0.40314303  0.64978303    -0.06100
C2625       C  0.81867006  0.37729628  0.59616102    -0.06000
C2626       C  0.88045307  0.31775359  0.60857589    -0.31400
N2627       N  0.90282485  0.31731273  0.57746498     0.15100
C2628       C  0.90460152  0.34934061  0.56379929    -0.31400
H2629       H  0.91995389  0.35660052  0.53865759     0.17000
C2630       C  0.86574584  0.40917542  0.68494334    -0.30400
N2631       N  0.89396785  0.42860731  0.67870942     0.13800
C2632       C  0.89299320  0.43982893  0.64205110    -0.30400
C2633       C  0.78933271  0.39701483  0.59792583    -0.30700
N2634       N  0.79320762  0.42519608  0.57568925     0.14300
H2635       H  0.77196937  0.39448822  0.62200948     0.16900
C2636       C  0.81841573  0.41551632  0.55029397    -0.30700
H2637       H  0.82953317  0.43052393  0.52952023     0.16900
H2638       H  0.91388554  0.45378459  0.62893820     0.16900
H2639       H  0.87310135  0.29534490  0.62466385     0.17000
H2640       H  0.85912745  0.39613799  0.71132326     0.16900
N2641       N  0.58914647  0.00941047  0.71122261    -0.35800
N2642       N  0.54498321  0.09671759  0.74417592    -0.56300
N2643       N  0.58142880  0.02439528  0.80525200    -0.35800
N2644       N  0.54174455  0.44012314  0.74721525    -0.56300
C2645       C  0.57390509  0.04017954  0.70870473     0.27800
C2646       C  0.56678654  0.48579525  0.69786233     0.27800
C2647       C  0.55865795  0.05044921  0.80149793     0.27800
C2648       C  0.56537512  0.49486081  0.79600249     0.27800
C2649       C  0.57379544  0.10148334  0.72318885     0.36400
C2650       C  0.55316503  0.11015134  0.77991705     0.36400
C2651       C  0.55532049  0.42668875  0.71370811     0.36400
C2652       C  0.56538678  0.43331334  0.77451244     0.36400
C2653       C  0.54252210  0.03681592  0.69044572    -0.21100
C2654       C  0.53824893  0.50195613  0.68371280    -0.21100
C2655       C  0.52727126  0.03769244  0.79101038    -0.21100
C2656       C  0.53120710  0.50225582  0.78799005    -0.21100
C2657       C  0.58816359  0.13224669  0.73786787    -0.22100
C2658       C  0.57143930  0.13992943  0.77342051    -0.22100
C2659       C  0.56995724  0.39572499  0.72347121    -0.22100
C2660       C  0.58025843  0.40197461  0.76215386    -0.22100
C2661       C  0.59226214  0.07070758  0.71183365    -0.17500
C2662       C  0.57509571  0.45114778  0.69321484    -0.17500
C2663       C  0.58243209  0.46228319  0.79332363    -0.17500
C2664       C  0.56780783  0.08539886  0.80508089    -0.17500
H2665       H  0.52675268  0.05789562  0.68079232     0.15400
H2666       H  0.51824092  0.49046747  0.66598587     0.15400
H2667       H  0.50456103  0.05274535  0.78669629     0.15400
H2668       H  0.51078758  0.48441706  0.78143097     0.15400
H2669       H  0.61269335  0.14313536  0.73135817     0.13700
H2670       H  0.58113111  0.15793387  0.79617110     0.13700
H2671       H  0.58237658  0.37721626  0.70342540     0.13700
H2672       H  0.60312416  0.39033991  0.77226113     0.13700
H2673       H  0.61387181  0.00464747  0.72184663     0.27000
H2674       H  0.60780566  0.02694858  0.81012916     0.27000
N2675       N  0.91295406  0.99600491  0.69916952    -0.35800
N2676       N  0.94638433  0.42287147  0.76250693    -0.56300
N2677       N  0.90508233  0.01250839  0.79271546    -0.35800
N2678       N  0.95287578  0.07973234  0.75934851    -0.56300
C2679       C  0.93433721  0.46885122  0.70489094     0.27800
C2680       C  0.92953976  0.02544296  0.70914315     0.27800
C2681       C  0.92003155  0.48177349  0.79637386     0.27800
C2682       C  0.92737671  0.03497845  0.80900891     0.27800
C2683       C  0.93816509  0.40920942  0.72683996     0.36400
C2684       C  0.91678917  0.42034089  0.78260332     0.36400
C2685       C  0.92979139  0.08684607  0.73160653     0.36400
C2686       C  0.93926307  0.09368834  0.79260760     0.36400
C2687       C  0.96563714  0.48097484  0.71672586    -0.21100
C2688       C  0.96317615  0.01727391  0.71863418    -0.21100
C2689       C  0.95111681  0.48344749  0.81559502    -0.21100
C2690       C  0.95568681  0.01828436  0.82313897    -0.21100
C2691       C  0.91847331  0.38050080  0.73356984    -0.22100
C2692       C  0.90100898  0.39024895  0.76796359    -0.22100
C2693       C  0.91502405  0.11830343  0.74370524    -0.22100
C2694       C  0.92489321  0.12466947  0.78252613    -0.22100
C2695       C  0.92452143  0.43414263  0.70119440    -0.17500
C2696       C  0.91290657  0.05823479  0.71194600    -0.17500
C2697       C  0.91939655  0.06974292  0.81362808    -0.17500
C2698       C  0.89990894  0.45229815  0.79302107    -0.17500
H2699       H  0.98788428  0.46560680  0.72316314     0.15400
H2700       H  0.98346960  0.03460810  0.72690310     0.15400
H2701       H  0.96520669  0.46148958  0.82582676     0.15400
H2702       H  0.97556519  0.02924188  0.84163825     0.15400
H2703       H  0.90860658  0.36235380  0.71107161     0.13700
H2704       H  0.87570344  0.38082214  0.77359631     0.13700
H2705       H  0.89242160  0.13003786  0.73313649     0.13700
H2706       H  0.91235891  0.14330539  0.80245053     0.13700
H2707       H  0.88666283  0.99383785  0.69351925     0.27000
H2708       H  0.88056665  0.01802273  0.78194162     0.27000
C2709       C  0.61041428  0.42042945  0.89510579     0.30800
C2710       C  0.65711514  0.38465760  0.84497897     0.30800
C2711       C  0.59541162  0.39488135  0.86350884    -0.05400
C2712       C  0.63368351  0.44311997  0.86934683    -0.06200
C2713       C  0.63479370  0.39559635  0.91485128    -0.06000
C2714       C  0.61959960  0.37589417  0.83983995    -0.05400
C2715       C  0.65455217  0.42461276  0.83970266    -0.06100
C2716       C  0.66131435  0.38119608  0.88988668    -0.06000
C2717       C  0.60432387  0.34731860  0.82375300    -0.31400
N2718       N  0.57236625  0.34716324  0.83798994     0.15100
C2719       C  0.56635629  0.37560776  0.86192979    -0.31400
H2720       H  0.54512377  0.37806424  0.88251616     0.17000
C2721       C  0.64228698  0.43788438  0.80440984    -0.30400
N2722       N  0.61597362  0.46052308  0.81205939     0.13800
C2723       C  0.61693050  0.46880743  0.85085737    -0.30400
C2724       C  0.69097965  0.38949174  0.90959661    -0.30700
N2725       N  0.68256471  0.40884787  0.94235671     0.14300
H2726       H  0.71602315  0.38888538  0.89586375     0.16900
C2727       C  0.64906503  0.40466245  0.94935472    -0.30700
H2728       H  0.63448149  0.41893952  0.97167452     0.16900
H2729       H  0.59654915  0.48375440  0.86548506     0.16900
H2730       H  0.61654600  0.32585821  0.80771256     0.17000
H2731       H  0.64690917  0.42530118  0.77591858     0.16900
N2732       N  0.00021278  0.23031206  0.93647871    -0.35800
N2733       N  0.54912757  0.27307787  0.89392538    -0.56300
N2734       N  0.99706826  0.30486155  0.85081360    -0.35800
N2735       N  0.94903493  0.27316969  0.89414276    -0.56300
C2736       C  0.53062603  0.21306511  0.92732070     0.27800
C2737       C  0.97486679  0.21080549  0.92043360     0.27800
C2738       C  0.52435009  0.31115235  0.82854988     0.27800
C2739       C  0.96905292  0.31573282  0.83223069     0.27800
C2740       C  0.56736046  0.26158014  0.92420576     0.36400
C2741       C  0.56680118  0.29900852  0.87931758     0.36400
C2742       C  0.93121523  0.25446487  0.91886410     0.36400
C2743       C  0.92863173  0.29853835  0.88286913     0.36400
C2744       C  0.52441963  0.18225875  0.90577114    -0.21100
C2745       C  0.98819944  0.18144164  0.90075370    -0.21100
C2746       C  0.51385926  0.32511191  0.79331974    -0.21100
C2747       C  0.97793779  0.33035084  0.79696717    -0.21100
C2748       C  0.59696869  0.28071152  0.92987174    -0.22100
C2749       C  0.59648528  0.30506083  0.90130427    -0.22100
C2750       C  0.89872012  0.26832181  0.92487148    -0.22100
C2751       C  0.89734557  0.29748603  0.90270829    -0.22100
C2752       C  0.56326584  0.22756924  0.93382156    -0.17500
C2753       C  0.94010484  0.22023819  0.92048742    -0.17500
C2754       C  0.93752297  0.31895746  0.85125368    -0.17500
C2755       C  0.55624950  0.31597510  0.84551939    -0.17500
H2756       H  0.54247411  0.16474225  0.89102791     0.15400
H2757       H  0.97504871  0.16247164  0.88186176     0.15400
H2758       H  0.53009800  0.33571355  0.77076905     0.15400
H2759       H  0.96117192  0.34338227  0.77698399     0.15400
H2760       H  0.61802721  0.27538314  0.94963974     0.13700
H2761       H  0.61672432  0.32329517  0.89603895     0.13700
H2762       H  0.87750622  0.25682231  0.94032869     0.13700
H2763       H  0.87486380  0.31355758  0.89912957     0.13700
H2764       H  0.99779659  0.25432882  0.95181857     0.27000
H2765       H  0.99850435  0.30221445  0.88130986     0.27000
C2766       C  0.84282441  0.15366559  0.85931818     0.30800
C2767       C  0.87802289  0.11380496  0.91642532     0.30800
C2768       C  0.88076728  0.16331061  0.86837475    -0.05400
C2769       C  0.82816715  0.15522494  0.90086229    -0.06200
C2770       C  0.84611661  0.11396989  0.85078210    -0.06000
C2771       C  0.89787832  0.14185527  0.89639679    -0.05400
C2772       C  0.84763973  0.13863255  0.93143829    -0.06100
C2773       C  0.86089213  0.09385647  0.88162062    -0.06000
C2774       C  0.91810512  0.16286285  0.91910401    -0.31400
N2775       N  0.91655817  0.19483416  0.90639903     0.15100
C2776       C  0.89405470  0.19608311  0.87597115    -0.31400
H2777       H  0.88609184  0.21956642  0.86223055     0.17000
C2778       C  0.82243729  0.12859740  0.95494305    -0.30400
N2779       N  0.79373619  0.12233701  0.93292448     0.13800
C2780       C  0.79453843  0.14594898  0.90540531    -0.30400
C2781       C  0.87833743  0.06720287  0.86399960    -0.30700
N2782       N  0.88474670  0.07580293  0.82699675     0.14300
H2783       H  0.89516723  0.05016907  0.87988978     0.16900
C2784       C  0.86174298  0.10044274  0.81710686    -0.30700
H2785       H  0.86167223  0.11395576  0.79005078     0.16900
H2786       H  0.77545827  0.14817711  0.88268588     0.16900
H2787       H  0.93092364  0.15634246  0.94625725     0.17000
H2788       H  0.82950155  0.11586276  0.98082982     0.16900
N2789       N  0.78279349  0.48236346  0.52529616    -0.35800
N2790       N  0.73872194  0.48133721  0.61116262    -0.56300
N2791       N  0.71424945  0.44416429  0.51733699    -0.35800
N2792       N  0.74366995  0.47812153  0.95215930    -0.56300
C2793       C  0.79869742  0.48600942  0.56070476     0.27800
C2794       C  0.80594311  0.47985967  0.99492734     0.27800
C2795       C  0.70222366  0.45609210  0.55230390     0.27800
C2796       C  0.69260062  0.45305911  0.99100919     0.27800
C2797       C  0.77019286  0.47253618  0.62208752     0.36400
C2798       C  0.71956726  0.45347258  0.61838844     0.36400
C2799       C  0.77331308  0.47433701  0.93394973     0.36400
C2800       C  0.72078028  0.45965879  0.93111886     0.36400
C2801       C  0.83259973  0.49291546  0.55283808    -0.21100
C2802       C  0.83732004  0.48708701  0.01168740    -0.21100
C2803       C  0.67099431  0.47211636  0.54814535    -0.21100
C2804       C  0.66455270  0.46731867  0.00942412    -0.21100
C2805       C  0.76603558  0.45170697  0.65434221    -0.22100
C2806       C  0.73290845  0.43863312  0.65153359    -0.22100
C2807       C  0.76676676  0.46345641  0.89489334    -0.22100
C2808       C  0.73280626  0.45346373  0.89306635    -0.22100
C2809       C  0.79127612  0.46182308  0.58961992    -0.17500
C2810       C  0.79987545  0.46231071  0.95751559    -0.17500
C2811       C  0.69563302  0.44257709  0.95219231    -0.17500
C2812       C  0.70706979  0.43590592  0.58370193    -0.17500
H2813       H  0.85269121  0.49626765  0.57473640     0.15400
H2814       H  0.86085666  0.48984378  0.99596381     0.15400
H2815       H  0.65385026  0.48108530  0.57170671     0.15400
H2816       H  0.64043591  0.47268802  0.99584023     0.15400
H2817       H  0.78653125  0.43952487  0.67040558     0.13700
H2818       H  0.72381625  0.41633922  0.66657653     0.13700
H2819       H  0.78508130  0.45898676  0.87161984     0.13700
H2820       H  0.72049564  0.44008628  0.86824984     0.13700
H2821       H  0.75683055  0.48193250  0.52240427     0.27000
H2822       H  0.73507122  0.42718831  0.51236087     0.27000
N2823       N  0.71102618  0.03961758  0.48087457    -0.35800
N2824       N  0.75012398  0.04316077  0.55358042    -0.56300
N2825       N  0.77914941  0.07687240  0.48905001    -0.35800
N2826       N  0.75521518  0.04045786  0.89605155    -0.56300
C2827       C  0.68794493  0.04238859  0.51039222     0.27800
C2828       C  0.69452473  0.03659852  0.94486795     0.27800
C2829       C  0.80195975  0.06813862  0.51564104     0.27800
C2830       C  0.79134629  0.06558980  0.95556109     0.27800
C2831       C  0.72030991  0.04742763  0.57143158     0.36400
C2832       C  0.77300043  0.06128480  0.57508026     0.36400
C2833       C  0.72407245  0.04923755  0.88401894     0.36400
C2834       C  0.77458541  0.06823717  0.88930208     0.36400
C2835       C  0.65652298  0.03536838  0.49370734    -0.21100
C2836       C  0.66054822  0.03031377  0.95273649    -0.21100
C2837       C  0.83034935  0.05424015  0.49758164    -0.21100
C2838       C  0.82259714  0.04952428  0.95923023    -0.21100
C2839       C  0.72650846  0.05799997  0.61062282    -0.22100
C2840       C  0.76063192  0.06734616  0.61301049    -0.22100
C2841       C  0.72909444  0.06975213  0.85167526    -0.22100
C2842       C  0.76208457  0.08296494  0.85566452    -0.22100
C2843       C  0.69415397  0.06002302  0.54768001    -0.17500
C2844       C  0.70244804  0.06044207  0.91575705    -0.17500
C2845       C  0.78627184  0.08585836  0.92428603    -0.17500
C2846       C  0.79834420  0.07861579  0.55451730    -0.17500
H2847       H  0.63304426  0.03277728  0.50953304     0.15400
H2848       H  0.64049600  0.02715092  0.93078291     0.15400
H2849       H  0.85428808  0.04893084  0.51154115     0.15400
H2850       H  0.83972513  0.04105071  0.93543684     0.15400
H2851       H  0.70786578  0.06314834  0.63347070     0.13700
H2852       H  0.77293206  0.08032817  0.63810811     0.13700
H2853       H  0.70901360  0.08175620  0.83475358     0.13700
H2854       H  0.77158731  0.10516480  0.84076610     0.13700
H2855       H  0.73672763  0.03892337  0.48404703     0.27000
H2856       H  0.75835786  0.09391366  0.49398032     0.27000
C2857       C  0.83081026  0.38450395  0.85556752     0.30800
C2858       C  0.88009938  0.42486848  0.89732320     0.30800
C2859       C  0.86850815  0.37512439  0.84995456    -0.05400
C2860       C  0.83257310  0.42279358  0.84514973    -0.06200
C2861       C  0.82801396  0.38721975  0.90238918    -0.06000
C2862       C  0.89333118  0.39599067  0.86918913    -0.05400
C2863       C  0.85411649  0.44436936  0.87079119    -0.06100
C2864       C  0.85650365  0.40354423  0.92298536    -0.06000
C2865       C  0.92355576  0.37841911  0.86562561    -0.31400
N2866       N  0.91768299  0.34845724  0.84472518     0.15100
C2867       C  0.88451094  0.34636845  0.83470483    -0.31400
H2868       H  0.87257775  0.32396466  0.82122395     0.17000
C2869       C  0.86632129  0.46913413  0.84799053    -0.30400
N2870       N  0.86606941  0.45645761  0.81018970     0.13800
C2871       C  0.84073888  0.43281534  0.80739675    -0.30400
C2872       C  0.84477744  0.41942647  0.95639848    -0.30700
N2873       N  0.81171274  0.42647213  0.95129459     0.14300
H2874       H  0.86142472  0.43422710  0.97554701     0.16900
C2875       C  0.80048511  0.40262399  0.92298959    -0.30700
H2876       H  0.77468480  0.40154872  0.91169109     0.16900
H2877       H  0.83512677  0.41761030  0.78064762     0.16900
H2878       H  0.94666859  0.38388070  0.88209102     0.17000
H2879       H  0.88598914  0.48642882  0.85975367     0.16900
C2880       C  0.83766436  0.13720322  0.66185536     0.30800
C2881       C  0.88437072  0.10245663  0.61060058     0.30800
C2882       C  0.87513135  0.14636638  0.66657848    -0.05400
C2883       C  0.84075578  0.09706178  0.66640071    -0.06200
C2884       C  0.83278854  0.14079672  0.61700737    -0.06000
C2885       C  0.89923901  0.12785182  0.64244911    -0.05400
C2886       C  0.86168325  0.07918628  0.63625660    -0.06100
C2887       C  0.85925695  0.12700621  0.59145783    -0.06000
C2888       C  0.92849674  0.14670819  0.64497603    -0.31400
N2889       N  0.92267337  0.17479756  0.66953847     0.15100
C2890       C  0.89058815  0.17458358  0.68353632    -0.31400
H2891       H  0.87842288  0.19598888  0.69986088     0.17000
C2892       C  0.87881646  0.05327341  0.65391056    -0.30400
N2893       N  0.87960147  0.06065305  0.69287217     0.13800
C2894       C  0.85324799  0.08310224  0.70121094    -0.30400
C2895       C  0.84455310  0.11742173  0.55731968    -0.30700
N2896       N  0.81127094  0.11238470  0.56494439     0.14300
H2897       H  0.85915981  0.10347799  0.53476660     0.16900
C2898       C  0.80298812  0.13154964  0.59793988    -0.30700
H2899       H  0.77818340  0.13168616  0.61220962     0.16900
H2900       H  0.84860846  0.09493595  0.73010608     0.16900
H2901       H  0.94955993  0.14465212  0.62429216     0.17000
H2902       H  0.89932978  0.03876251  0.63895005     0.16900
C2903       C  0.61770152  0.11505225  0.92481277     0.30800
C2904       C  0.65654385  0.15446460  0.86969868     0.30800
C2905       C  0.65414118  0.12811586  0.93788044    -0.05400
C2906       C  0.62480382  0.09884218  0.88369340    -0.06200
C2907       C  0.60452414  0.15045209  0.91555043    -0.06000
C2908       C  0.67469119  0.14448437  0.90816331    -0.05400
C2909       C  0.64299879  0.11856752  0.85521031    -0.06100
C2910       C  0.62285880  0.17071631  0.88786436    -0.06000
C2911       C  0.70407315  0.12495750  0.90617440    -0.31400
N2912       N  0.70081441  0.09719949  0.92921412     0.15100
C2913       C  0.67592006  0.10718493  0.95490392    -0.31400
H2914       H  0.66594676  0.09295584  0.97721974     0.17000
C2915       C  0.62601649  0.11196661  0.82037464    -0.30400
N2916       N  0.59840332  0.09178977  0.82724174     0.18400
C2917       C  0.59990357  0.08117022  0.86414693    -0.30400
C2918       C  0.61404558  0.20443594  0.89826153    -0.30700
N2919       N  0.59220685  0.20496892  0.92985265     0.14300
H2920       H  0.62175338  0.22699083  0.88268423     0.16900
C2921       C  0.59006216  0.17278084  0.94293983    -0.30700
H2922       H  0.57487975  0.16546644  0.96820073     0.16900
H2923       H  0.57934520  0.06700845  0.87776654     0.16900
H2924       H  0.72100711  0.12727261  0.88163343     0.17000
H2925       H  0.63177067  0.12487077  0.79359600     0.16900
C2926       C  0.65050724  0.36813473  0.64726467     0.30800
C2927       C  0.61588617  0.40851550  0.59029046     0.30800
C2928       C  0.61229266  0.35923390  0.63839046    -0.05400
C2929       C  0.64809707  0.40781696  0.65571018    -0.06200
C2930       C  0.66517926  0.36629947  0.60590658    -0.06000
C2931       C  0.59551393  0.38109830  0.61063856    -0.05400
C2932       C  0.63341959  0.42822560  0.62501988    -0.06100
C2933       C  0.64591063  0.38304570  0.57528284    -0.06000
C2934       C  0.57407719  0.36091762  0.58861493    -0.31400
N2935       N  0.57475931  0.32899044  0.60132356     0.15100
C2936       C  0.59776848  0.32693397  0.63121041    -0.31400
H2937       H  0.60544418  0.30316514  0.64449881     0.17000
C2938       C  0.61614145  0.45475598  0.64302180    -0.30400
N2939       N  0.60979141  0.44571511  0.67990981     0.13800
C2940       C  0.63289964  0.42120480  0.68955342    -0.30400
C2941       C  0.67158792  0.39280131  0.55225741    -0.30700
N2942       N  0.70003220  0.39931241  0.57469811     0.14300
H2943       H  0.66491103  0.40503505  0.52598720     0.16900
C2944       C  0.69894000  0.37552751  0.60192436    -0.30700
H2945       H  0.71770172  0.37335574  0.62500339     0.16900
H2946       H  0.63298428  0.40736668  0.71633338     0.16900
H2947       H  0.56171073  0.36752462  0.56122823     0.17000
H2948       H  0.59920505  0.47184678  0.62734823     0.16900
O2949       O  0.55337456  0.07945806  0.59300585    -0.74500
O2950       O  0.59540209  0.05055239  0.55785235    -0.53400
C2951       C  0.58561297  0.07471120  0.58423248     0.79300
O2952       O  0.93749953  0.42456962  0.56300673    -0.59100
O2953       O  0.89646959  0.46052258  0.53979772    -0.52100
C2954       C  0.90485831  0.43168039  0.55753694     0.71300
O2955       O  0.55519270  0.42910654  0.57028190    -0.73600
O2956       O  0.59838740  0.46010593  0.54389350    -0.54200
C2957       C  0.58837612  0.43378493  0.56492566     0.77300
O2958       O  0.94287326  0.08515662  0.58848313    -0.58800
O2959       O  0.89975310  0.05554326  0.55658752    -0.51900
C2960       C  0.91061606  0.07996301  0.58230500     0.73900
Zr2961     Zr  0.49726145  0.05562250  0.56792273     2.54700
O2962       O  0.48392126  0.03867567  0.63441573    -0.79300
O2963       O  0.49482307  0.11866711  0.57206883    -0.92800
Zr2964     Zr  0.49567951  0.45290809  0.55161085     2.64700
O2965       O  0.49105999  0.44797895  0.62279937    -0.97700
O2966       O  0.99409623  0.39234852  0.52783492    -0.79800
O2967       O  0.53205772  0.00380828  0.56056475    -0.83100
O2968       O  0.96178866  0.00523725  0.55955266    -2.17800
O2969       O  0.93876893  0.09383074  0.93663261    -0.66500
O2970       O  0.89573517  0.06186567  0.96213844    -0.51100
C2971       C  0.90563399  0.08869913  0.94175295     0.72300
O2972       O  0.55201078  0.43858715  0.91615522    -0.59400
O2973       O  0.59514580  0.46723841  0.94929920    -0.51400
C2974       C  0.58425026  0.44333582  0.92292461     0.74100
O2975       O  0.94081264  0.44390302  0.91199734    -0.70800
O2976       O  0.89871775  0.47289326  0.94696187    -0.49500
C2977       C  0.90852019  0.44898422  0.92035983     0.75400
O2978       O  0.55635831  0.09848779  0.94349711    -0.66100
O2979       O  0.59724946  0.06207455  0.96601485    -0.53300
C2980       C  0.58893060  0.09096943  0.94850364     0.73800
Zr2981     Zr  0.49777261  0.07010187  0.95434778     2.77500
O2982       O  0.50211490  0.07657715  0.88308096    -0.96900
O2983       O  0.49507918  0.13169525  0.97327588    -0.77700
Zr2984     Zr  0.49758632  0.46626415  0.93827731     2.70100
O2985       O  0.01144340  0.47477508  0.86954320    -0.79000
O2986       O  0.49631823  0.40360438  0.94470450    -0.98100
Zr2987     Zr  0.56973312  0.01026956  0.00417562     2.21500
Zr2988     Zr  0.92478361  0.01225110  0.50222623     2.11100
O2989       O  0.96315245  0.01750823  0.94504646    -2.46700
O2990       O  0.53230732  0.01753719  0.94726669    -0.78800
O2991       O  0.96261244  0.06143156  0.51063139    -0.71000
O2992       O  0.53220538  0.46064771  0.99571217    -2.31900
O2993       O  0.53264295  0.06088689  0.01132472    -2.28100
O2994       O  0.96185171  0.46265242  0.49475024    -0.72700
H2995       H  0.94739412  0.00344642  0.58274509     0.79300
H2996       H  0.54604885  0.43990633  0.99236327     0.80400
H2997       H  0.94954963  0.01956596  0.92136057     0.82600
H2998       H  0.54691853  0.08105115  0.01539379     0.80200
H2999       H  0.51545853  0.38783731  0.51414524     0.43200
H3000       H  0.97155398  0.39781561  0.95209054     0.42200
H3001       H  0.51719362  0.45228026  0.85750691     0.41900
H3002       H  0.01393783  0.09772908  0.87982475     0.39800
H3003       H  0.97605635  0.13236072  0.99369252     0.43000
H3004       H  0.51593714  0.12662967  0.55891180     0.37700
H3005       H  0.47338170  0.05946967  0.64777365     0.43900
H3006       H  0.97419602  0.46237816  0.63139049     0.40300
H3007       H  0.02111767  0.05777515  0.87531487     0.45200
H3008       H  0.49821055  0.12446001  0.60055471     0.43900
H3009       H  0.48103659  0.42477696  0.62645617     0.44000
H3010       H  0.99584245  0.39387943  0.91499525     0.44400
O3011       O  0.67402895  0.21087641  0.84069638    -0.74500
O3012       O  0.70328563  0.16407105  0.81334367    -0.53400
C3013       C  0.67961826  0.17755141  0.83858741     0.79300
O3014       O  0.67089240  0.31112378  0.67027914    -0.59100
O3015       O  0.69783768  0.35783869  0.70045896    -0.52100
C3016       C  0.67402908  0.34447623  0.67604028     0.71300
O3017       O  0.68291668  0.19806910  0.66688712    -0.73600
O3018       O  0.70666913  0.15639027  0.70521735    -0.54200
C3019       C  0.68700288  0.16577792  0.67521945     0.77300
O3020       O  0.67825576  0.32599468  0.82916808    -0.58800
O3021       O  0.70375887  0.36809407  0.79314921    -0.51900
C3022       C  0.68186662  0.35834338  0.82028187     0.73900
Zr3023     Zr  0.69671530  0.26517095  0.81114084     2.54700
O3024       O  0.63460178  0.26330307  0.80451951    -0.79300
O3025       O  0.70139433  0.27280290  0.88296576    -0.92800
Zr3026     Zr  0.69688125  0.25676701  0.69536787     2.64700
O3027       O  0.63579236  0.25575935  0.71103634    -0.97700
O3028       O  0.69684895  0.25430281  0.62316464    -0.79800
O3029       O  0.69711760  0.22487323  0.75516047    -0.83100
O3030       O  0.69778640  0.29666105  0.75120006    -2.17800
O3031       O  0.81146803  0.32509931  0.83764088    -0.66500
O3032       O  0.78669427  0.36668933  0.80004008    -0.51100
C3033       C  0.80687218  0.35748044  0.82962404     0.72300
O3034       O  0.81696628  0.19591450  0.67889950    -0.59400
O3035       O  0.79035554  0.15350981  0.71330909    -0.51400
C3036       C  0.81293512  0.16341317  0.68699728     0.74100
O3037       O  0.81837129  0.31070980  0.66333100    -0.70800
O3038       O  0.79017095  0.35766799  0.69191710    -0.49500
C3039       C  0.81317009  0.34408658  0.66591201     0.75400
O3040       O  0.82214203  0.21076305  0.83649456    -0.66100
O3041       O  0.79581927  0.16404571  0.80550118    -0.53300
C3042       C  0.81923936  0.17737620  0.83046088     0.73800
Zr3043     Zr  0.79700160  0.26551553  0.81107686     2.77500
O3044       O  0.85838357  0.26013986  0.79792932    -0.96900
O3045       O  0.79359843  0.27105628  0.88314666    -0.77700
Zr3046     Zr  0.79742088  0.25682441  0.69523096     2.70100
O3047       O  0.85925221  0.26213794  0.70338346    -0.79000
O3048       O  0.79426907  0.24529901  0.62381788    -0.98100
Zr3049     Zr  0.74694699  0.18671584  0.75877897     2.21500
Zr3050     Zr  0.74686226  0.33533061  0.74699324     2.11100
O3051       O  0.79688870  0.29736108  0.75110095    -2.46700
O3052       O  0.79572326  0.22571916  0.75521344    -0.78800
O3053       O  0.74663868  0.30061963  0.80604345    -0.71000
O3054       O  0.74738569  0.22137349  0.69942182    -2.31900
O3055       O  0.74711761  0.22946610  0.81387409    -2.28100
O3056       O  0.74697814  0.29245393  0.69217061    -0.72700
H3057       H  0.67718445  0.31057295  0.75082461     0.79300
H3058       H  0.74798740  0.20566910  0.67640225     0.80400
H3059       H  0.81731905  0.31141375  0.75038003     0.82600
H3060       H  0.74734955  0.21762563  0.83857691     0.80200
H3061       H  0.72114666  0.25008399  0.61567452     0.43200
H3062       H  0.78446336  0.26672340  0.61316572     0.42200
H3063       H  0.86884584  0.25509896  0.67708142     0.41900
H3064       H  0.86417225  0.27869203  0.77973980     0.39800
H3065       H  0.81669946  0.26433469  0.89243862     0.43000
H3066       H  0.71835961  0.29162874  0.88722045     0.37700
H3067       H  0.62592537  0.26724978  0.83191451     0.43900
H3068       H  0.63111851  0.27699371  0.72766061     0.40300
H3069       H  0.86971410  0.26659098  0.82335220     0.45200
H3070       H  0.71336839  0.25169377  0.89153916     0.43900
H3071       H  0.62427200  0.26011808  0.68562301     0.44000
H3072       H  0.81850162  0.24500389  0.61481793     0.44400
C3073       C  0.66416689  0.63914922  0.14904984     0.30800
C3074       C  0.61486931  0.59896256  0.10748863     0.30800
C3075       C  0.66777909  0.63518851  0.10225608    -0.05400
C3076       C  0.66143807  0.60140228  0.16084924    -0.06200
C3077       C  0.62656690  0.64941451  0.15378385    -0.06000
C3078       C  0.63909585  0.61936524  0.08157819    -0.05400
C3079       C  0.64005523  0.57965178  0.13517255    -0.06100
C3080       C  0.60179577  0.62854141  0.13464434    -0.06000
C3081       C  0.65058619  0.60270199  0.04850244    -0.31400
N3082       N  0.68327032  0.59444049  0.05423281     0.15100
C3083       C  0.69497280  0.61805438  0.08262227    -0.31400
H3084       H  0.72053541  0.61813985  0.09457171     0.17000
C3085       C  0.62650213  0.55607312  0.15841520    -0.30400
N3086       N  0.62606210  0.56973365  0.19576503     0.13800
C3087       C  0.65140189  0.59329427  0.19878345    -0.30400
C3088       C  0.57153895  0.64569059  0.13866311    -0.30700
N3089       N  0.57730101  0.67572056  0.15940157     0.14300
H3090       H  0.54860339  0.64017206  0.12211139     0.16900
C3091       C  0.61045904  0.67797989  0.16950557    -0.30700
H3092       H  0.62225311  0.70054479  0.18298452     0.16900
H3093       H  0.65574614  0.60985040  0.22484709     0.16900
H3094       H  0.63361270  0.58830421  0.02930630     0.17000
H3095       H  0.60677739  0.53885752  0.14660404     0.16900
N3096       N  0.99753548  0.71739558  0.14990583    -0.35800
N3097       N  0.54480608  0.74812077  0.10609984    -0.56300
N3098       N  0.99384470  0.79174404  0.06861275    -0.35800
N3099       N  0.94568996  0.74837915  0.10855582    -0.56300
C3100       C  0.52612582  0.70860487  0.17071914     0.27800
C3101       C  0.97097899  0.71223462  0.17380918     0.27800
C3102       C  0.51867175  0.81214162  0.08731428     0.27800
C3103       C  0.96420864  0.80889860  0.07626541     0.27800
C3104       C  0.56589492  0.72386913  0.11866540     0.36400
C3105       C  0.56341414  0.76932708  0.08506250     0.36400
C3106       C  0.92778359  0.72304761  0.12412359     0.36400
C3107       C  0.92696610  0.76040905  0.07907084     0.36400
C3108       C  0.51803913  0.69713378  0.20784272    -0.21100
C3109       C  0.98228334  0.70123479  0.21010638    -0.21100
C3110       C  0.50468522  0.84066757  0.10800056    -0.21100
C3111       C  0.97063191  0.83980402  0.09751800    -0.21100
C3112       C  0.59807897  0.72696091  0.10130875    -0.22100
C3113       C  0.59667867  0.75700303  0.08067258    -0.22100
C3114       C  0.89751694  0.71744446  0.10318732    -0.22100
C3115       C  0.89682432  0.74182437  0.07454887    -0.22100
C3116       C  0.55753612  0.70494295  0.15170483    -0.17500
C3117       C  0.93859072  0.70695881  0.15838138    -0.17500
C3118       C  0.93134317  0.79458430  0.07000018    -0.17500
C3119       C  0.55360897  0.80349961  0.08682299    -0.17500
H3120       H  0.53548660  0.68692455  0.22929754     0.15400
H3121       H  0.96665597  0.69225452  0.23415571     0.15400
H3122       H  0.51752570  0.85968392  0.12715050     0.15400
H3123       H  0.95271743  0.85768636  0.11190488     0.15400
H3124       H  0.62124516  0.71246319  0.10684884     0.13700
H3125       H  0.61838226  0.77045929  0.06850915     0.13700
H3126       H  0.87695623  0.69985367  0.10955608     0.13700
H3127       H  0.87522529  0.74777509  0.05582752     0.13700
H3128       H  0.99600079  0.71623686  0.11904156     0.27000
H3129       H  0.99658736  0.76751223  0.05383466     0.27000
C3130       C  0.87635760  0.90702077  0.07948874     0.30800
C3131       C  0.83736235  0.86719695  0.13407000     0.30800
C3132       C  0.88974803  0.87175127  0.08881684    -0.05400
C3133       C  0.86877140  0.92308201  0.12055462    -0.06200
C3134       C  0.84008933  0.89375355  0.06599518    -0.06000
C3135       C  0.87142371  0.85133559  0.11635088    -0.05400
C3136       C  0.85038559  0.90315409  0.14872179    -0.06100
C3137       C  0.81940490  0.87708319  0.09540982    -0.06000
C3138       C  0.88073665  0.81772864  0.10616922    -0.31400
N3139       N  0.90259114  0.81737558  0.07458226     0.15100
C3140       C  0.90455036  0.84957823  0.06152550    -0.31400
H3141       H  0.91965071  0.85701087  0.03624901     0.17000
C3142       C  0.86709737  0.90936252  0.18369934    -0.30400
N3143       N  0.89506578  0.92905153  0.17713547     0.13800
C3144       C  0.89370419  0.94027347  0.14048844    -0.30400
C3145       C  0.78996803  0.89658941  0.09731112    -0.30700
N3146       N  0.79346640  0.92467519  0.07483226     0.14300
H3147       H  0.77286303  0.89409115  0.12163860     0.16900
C3148       C  0.81842501  0.91493063  0.04917340    -0.30700
H3149       H  0.82896254  0.92987741  0.02795585     0.16900
H3150       H  0.91437648  0.95451923  0.12722641     0.16900
H3151       H  0.87332309  0.79518216  0.12193199     0.17000
H3152       H  0.86085354  0.89639492  0.21027217     0.16900
N3153       N  0.59007461  0.51068969  0.21296409    -0.35800
N3154       N  0.54485481  0.59888257  0.24475772    -0.56300
N3155       N  0.58147813  0.52513663  0.30458645    -0.35800
N3156       N  0.54106687  0.94011326  0.24691252    -0.56300
C3157       C  0.57438153  0.54140851  0.21126971     0.27800
C3158       C  0.56678451  0.98649629  0.19847775     0.27800
C3159       C  0.55885265  0.55137998  0.30092551     0.27800
C3160       C  0.56519852  0.99377605  0.29640349     0.27800
C3161       C  0.57374380  0.60330682  0.22375902     0.36400
C3162       C  0.55348582  0.61159805  0.28064678     0.36400
C3163       C  0.55516913  0.92709336  0.21349243     0.36400
C3164       C  0.56409580  0.93254274  0.27458894     0.36400
C3165       C  0.54200743  0.53762142  0.19567678    -0.21100
C3166       C  0.53705143  0.00232776  0.18718563    -0.21100
C3167       C  0.52713546  0.53885435  0.29123640    -0.21100
C3168       C  0.53104760  0.00190675  0.28968302    -0.21100
C3169       C  0.58824701  0.63398032  0.23856574    -0.22100
C3170       C  0.57189089  0.64134773  0.27444910    -0.22100
C3171       C  0.56951683  0.89588028  0.22298458    -0.22100
C3172       C  0.57884366  0.90123178  0.26212736    -0.22100
C3173       C  0.59239587  0.57227778  0.21342203    -0.17500
C3174       C  0.57527678  0.95180329  0.19380409    -0.17500
C3175       C  0.58152016  0.96103759  0.29355876    -0.17500
C3176       C  0.56841382  0.58621001  0.30479572    -0.17500
H3177       H  0.52532804  0.55840697  0.18722263     0.15400
H3178       H  0.51636568  0.99069626  0.17070642     0.15400
H3179       H  0.50440675  0.55400536  0.28675688     0.15400
H3180       H  0.51036189  0.98439097  0.28324487     0.15400
H3181       H  0.61280456  0.64476789  0.23198330     0.13700
H3182       H  0.58191215  0.65898392  0.29737539     0.13700
H3183       H  0.58221131  0.87759939  0.20292394     0.13700
H3184       H  0.60121757  0.88918056  0.27296826     0.13700
H3185       H  0.61530958  0.50608584  0.22201549     0.27000
H3186       H  0.60798982  0.52739112  0.30860555     0.27000
N3187       N  0.91224613  0.49689681  0.20074165    -0.35800
N3188       N  0.94771845  0.92409328  0.26075725    -0.56300
N3189       N  0.90514732  0.51338450  0.29443244    -0.35800
N3190       N  0.95370937  0.58048271  0.25970337    -0.56300
C3191       C  0.93465364  0.96994826  0.20341802     0.27800
C3192       C  0.92929755  0.52609767  0.21051773     0.27800
C3193       C  0.92000142  0.98228654  0.29502762     0.27800
C3194       C  0.92804392  0.53582758  0.30963479     0.27800
C3195       C  0.93954628  0.91030874  0.22517908     0.36400
C3196       C  0.91848908  0.92071080  0.28137394     0.36400
C3197       C  0.93054221  0.58765345  0.23207947     0.36400
C3198       C  0.94029545  0.59455225  0.29298326     0.36400
C3199       C  0.96588977  0.98281268  0.21437287    -0.21100
C3200       C  0.96299167  0.51764009  0.21922486    -0.21100
C3201       C  0.95173491  0.98469352  0.31253693    -0.21100
C3202       C  0.95648575  0.51898061  0.32317834    -0.21100
C3203       C  0.92039580  0.88120952  0.23209552    -0.22100
C3204       C  0.90326440  0.89025862  0.26699813    -0.22100
C3205       C  0.91616148  0.61935196  0.24394474    -0.22100
C3206       C  0.92607882  0.62563027  0.28281857    -0.22100
C3207       C  0.92557590  0.93503304  0.19951988    -0.17500
C3208       C  0.91314851  0.55904073  0.21311636    -0.17500
C3209       C  0.92033274  0.57068890  0.31403924    -0.17500
C3210       C  0.90087176  0.95217383  0.29214224    -0.17500
H3211       H  0.98862850  0.96781822  0.21943568     0.15400
H3212       H  0.98357478  0.53478731  0.22699406     0.15400
H3213       H  0.96721225  0.96301417  0.32074005     0.15400
H3214       H  0.97690716  0.52991574  0.34093165     0.15400
H3215       H  0.91060128  0.86297301  0.20964533     0.13700
H3216       H  0.87826820  0.88027949  0.27319462     0.13700
H3217       H  0.89383677  0.63145405  0.23301951     0.13700
H3218       H  0.91374286  0.64441626  0.30274390     0.13700
H3219       H  0.88586021  0.49496355  0.19558744     0.27000
H3220       H  0.88050224  0.51901199  0.28412612     0.27000
C3221       C  0.61037909  0.91863437  0.39522335     0.30800
C3222       C  0.65775663  0.88378372  0.34504616     0.30800
C3223       C  0.59594903  0.89233929  0.36391017    -0.05400
C3224       C  0.63305768  0.94169979  0.36927822    -0.06200
C3225       C  0.63575721  0.89487463  0.41512439    -0.06000
C3226       C  0.62046527  0.87393628  0.34024656    -0.05400
C3227       C  0.65414104  0.92359236  0.33954020    -0.06100
C3228       C  0.66252736  0.88099882  0.38998101    -0.06000
C3229       C  0.60555086  0.84548491  0.32321558    -0.31400
N3230       N  0.57336516  0.84480648  0.33685148     0.15100
C3231       C  0.56697064  0.87289912  0.36135230    -0.31400
H3232       H  0.54538268  0.87506856  0.38145122     0.17000
C3233       C  0.64136820  0.93648651  0.30437024    -0.30400
N3234       N  0.61492303  0.95884330  0.31230264     0.13800
C3235       C  0.61591249  0.96714510  0.35105995    -0.30400
C3236       C  0.69215317  0.89127633  0.40869664    -0.30700
N3237       N  0.68352589  0.91091526  0.44116547     0.14300
H3238       H  0.71689233  0.89141232  0.39431132     0.16900
C3239       C  0.65032012  0.90566538  0.44891213    -0.30700
H3240       H  0.63558084  0.91980737  0.47117258     0.16900
H3241       H  0.59548043  0.98193336  0.36581652     0.16900
H3242       H  0.61809372  0.82447823  0.30670350     0.17000
H3243       H  0.64582317  0.92378934  0.27596140     0.16900
N3244       N  0.00020604  0.73000392  0.43631781    -0.35800
N3245       N  0.54995213  0.77051362  0.39216656    -0.56300
N3246       N  0.99737729  0.80457106  0.35137548    -0.35800
N3247       N  0.94986122  0.77305816  0.39520645    -0.56300
C3248       C  0.53047009  0.71168489  0.42657572     0.27800
C3249       C  0.97490353  0.71037873  0.42049060     0.27800
C3250       C  0.52489179  0.80911031  0.32759050     0.27800
C3251       C  0.96927611  0.81400417  0.33210538     0.27800
C3252       C  0.56775002  0.75941409  0.42303824     0.36400
C3253       C  0.56814470  0.79582177  0.37695183     0.36400
C3254       C  0.93176233  0.75434785  0.41967104     0.36400
C3255       C  0.92973076  0.79874993  0.38422035     0.36400
C3256       C  0.52410526  0.68230200  0.40256225    -0.21100
C3257       C  0.98822792  0.68109139  0.40060882    -0.21100
C3258       C  0.51385413  0.82291089  0.29248754    -0.21100
C3259       C  0.97787814  0.82633332  0.29552033    -0.21100
C3260       C  0.59765655  0.77812594  0.42835000    -0.22100
C3261       C  0.59788511  0.80167886  0.39891879    -0.22100
C3262       C  0.89959850  0.76877266  0.42621672    -0.22100
C3263       C  0.89868534  0.79826934  0.40455297    -0.22100
C3264       C  0.56322090  0.72563296  0.43340851    -0.17500
C3265       C  0.94023780  0.71998011  0.42089652    -0.17500
C3266       C  0.93808365  0.81813035  0.35154174    -0.17500
C3267       C  0.55734953  0.81328016  0.34354250    -0.17500
H3268       H  0.54227811  0.66537521  0.38702494     0.15400
H3269       H  0.97498897  0.66195321  0.38201495     0.15400
H3270       H  0.52979273  0.83279060  0.26921033     0.15400
H3271       H  0.96087773  0.83785204  0.27449606     0.15400
H3272       H  0.61848983  0.77288253  0.44846193     0.13700
H3273       H  0.61842426  0.81955845  0.39350507     0.13700
H3274       H  0.87826938  0.75750203  0.44168676     0.13700
H3275       H  0.87650347  0.81480997  0.40126562     0.13700
H3276       H  0.99771916  0.75389063  0.45192243     0.27000
H3277       H  0.99876604  0.80409862  0.38216679     0.27000
C3278       C  0.84316369  0.65385282  0.35867299     0.30800
C3279       C  0.87757076  0.61387619  0.41613252     0.30800
C3280       C  0.88096822  0.66350436  0.36834288    -0.05400
C3281       C  0.82787869  0.65526959  0.39982137    -0.06200
C3282       C  0.84642683  0.61428334  0.35003010    -0.06000
C3283       C  0.89771988  0.64194163  0.39649463    -0.05400
C3284       C  0.84707121  0.63878341  0.43068535    -0.06100
C3285       C  0.86072656  0.59401423  0.38103195    -0.06000
C3286       C  0.91781549  0.66285036  0.41949377    -0.31400
N3287       N  0.91643059  0.69485593  0.40688599     0.15100
C3288       C  0.89420391  0.69626435  0.37622641    -0.31400
H3289       H  0.88649086  0.71984646  0.36244207     0.17000
C3290       C  0.82167246  0.62867019  0.45371066    -0.30400
N3291       N  0.79330411  0.62201515  0.43120909     0.13800
C3292       C  0.79428901  0.64548181  0.40353639    -0.30400
C3293       C  0.87845313  0.56759645  0.36349055    -0.30700
N3294       N  0.88556983  0.57672348  0.32683759     0.14300
H3295       H  0.89500991  0.55043338  0.37955426     0.16900
C3296       C  0.86262071  0.60122388  0.31661400    -0.30700
H3297       H  0.86306293  0.61519664  0.28991979     0.16900
H3298       H  0.77567411  0.64726951  0.38025141     0.16900
H3299       H  0.93046222  0.65625335  0.44672873     0.17000
H3300       H  0.82873033  0.61620360  0.47977065     0.16900
N3301       N  0.78343609  0.98234334  0.02470323    -0.35800
N3302       N  0.74025380  0.98162797  0.11115554    -0.56300
N3303       N  0.71507225  0.94493482  0.01680020    -0.35800
N3304       N  0.74494482  0.97966679  0.45237714    -0.56300
C3305       C  0.79954505  0.98555726  0.06003167     0.27800
C3306       C  0.80697835  0.97973913  0.49542701     0.27800
C3307       C  0.70350724  0.95701823  0.05195903     0.27800
C3308       C  0.69332041  0.95452127  0.49067488     0.27800
C3309       C  0.77166052  0.97227507  0.12169264     0.36400
C3310       C  0.72081551  0.95393681  0.11815320     0.36400
C3311       C  0.77461782  0.97521124  0.43432087     0.36400
C3312       C  0.72182810  0.96182879  0.43097312     0.36400
C3313       C  0.83343245  0.99220212  0.05205128    -0.21100
C3314       C  0.83841336  0.98692549  0.51200331    -0.21100
C3315       C  0.67256384  0.97372625  0.04814547    -0.21100
C3316       C  0.66501884  0.96825104  0.50909846    -0.21100
C3317       C  0.76742699  0.95135075  0.15382580    -0.22100
C3318       C  0.73414635  0.93868635  0.15106686    -0.22100
C3319       C  0.76813916  0.96482621  0.39510966    -0.22100
C3320       C  0.73391358  0.95581681  0.39291425    -0.22100
C3321       C  0.79214692  0.96130529  0.08886811    -0.17500
C3322       C  0.80069941  0.96234058  0.45794471    -0.17500
C3323       C  0.69656413  0.94453560  0.45166178    -0.17500
C3324       C  0.70818109  0.93671151  0.08331322    -0.17500
H3325       H  0.85356587  0.99547160  0.07390502     0.15400
H3326       H  0.86188116  0.98950679  0.49618101     0.15400
H3327       H  0.65546313  0.98246235  0.07186535     0.15400
H3328       H  0.64094789  0.97364556  0.49531389     0.15400
H3329       H  0.78784868  0.93886205  0.16970382     0.13700
H3330       H  0.72484385  0.91643399  0.16601402     0.13700
H3331       H  0.78658749  0.95971444  0.37206198     0.13700
H3332       H  0.72135434  0.94296388  0.36790231     0.13700
H3333       H  0.75749255  0.98268616  0.02176296     0.27000
H3334       H  0.73555594  0.92760311  0.01151903     0.27000
N3335       N  0.71052181  0.53824276  0.98038806    -0.35800
N3336       N  0.74995570  0.54205854  0.05309074    -0.56300
N3337       N  0.77829900  0.57645513  0.98847615    -0.35800
N3338       N  0.75657882  0.53891593  0.39481073    -0.56300
C3339       C  0.68761984  0.54111007  0.01011879     0.27800
C3340       C  0.69637172  0.53480358  0.44546826     0.27800
C3341       C  0.80127487  0.56828645  0.01518914     0.27800
C3342       C  0.79067690  0.56571614  0.45489420     0.27800
C3343       C  0.72016550  0.54529672  0.07112286     0.36400
C3344       C  0.77248790  0.56046415  0.07469927     0.36400
C3345       C  0.72506405  0.54750938  0.38378791     0.36400
C3346       C  0.77536694  0.56710729  0.38793342     0.36400
C3347       C  0.65607253  0.53434822  0.99363707    -0.21100
C3348       C  0.66238142  0.52808263  0.45303880    -0.21100
C3349       C  0.82981104  0.55445701  0.99734150    -0.21100
C3350       C  0.82170273  0.54920324  0.45882562    -0.21100
C3351       C  0.72627544  0.55553617  0.11048557    -0.22100
C3352       C  0.76023748  0.56567235  0.11283592    -0.22100
C3353       C  0.72927994  0.56805583  0.35130318    -0.22100
C3354       C  0.76227356  0.58145442  0.35435617    -0.22100
C3355       C  0.69406525  0.55826653  0.04767327    -0.17500
C3356       C  0.70400012  0.55861856  0.41618410    -0.17500
C3357       C  0.78589203  0.58545188  0.42307912    -0.17500
C3358       C  0.79742525  0.57838010  0.05418307    -0.17500
H3359       H  0.63264961  0.53196696  0.00960121     0.15400
H3360       H  0.64247432  0.52469671  0.43092698     0.15400
H3361       H  0.85369886  0.54912562  0.01147338     0.15400
H3362       H  0.83867189  0.54007902  0.43514192     0.15400
H3363       H  0.70747676  0.56019010  0.13339492     0.13700
H3364       H  0.77236816  0.57868420  0.13803158     0.13700
H3365       H  0.70879085  0.57993971  0.33491818     0.13700
H3366       H  0.77129249  0.60371960  0.33919470     0.13700
H3367       H  0.73671954  0.53779787  0.98343991     0.27000
H3368       H  0.75724755  0.59314923  0.99318277     0.27000
C3369       C  0.83146976  0.88378042  0.35574820     0.30800
C3370       C  0.88062185  0.92356108  0.39808222     0.30800
C3371       C  0.86917624  0.87407426  0.35038459    -0.05400
C3372       C  0.83359140  0.92200953  0.34535582    -0.06200
C3373       C  0.82810142  0.88659863  0.40256111    -0.06000
C3374       C  0.89392550  0.89472426  0.36994881    -0.05400
C3375       C  0.85521453  0.94331297  0.37121191    -0.06100
C3376       C  0.85661911  0.90244699  0.42352338    -0.06000
C3377       C  0.92426355  0.87745821  0.36591262    -0.31400
N3378       N  0.91849897  0.84767434  0.34460053     0.15100
C3379       C  0.88529131  0.84548650  0.33465032    -0.31400
H3380       H  0.87339252  0.82273722  0.32169044     0.17000
C3381       C  0.86821433  0.96769910  0.34851846    -0.30400
N3382       N  0.86755908  0.95527533  0.31064225     0.13800
C3383       C  0.84214976  0.93178894  0.30763162    -0.30400
C3384       C  0.84485269  0.91852686  0.45686767    -0.30700
N3385       N  0.81200008  0.92630046  0.45134186     0.14300
H3386       H  0.86160848  0.93311365  0.47613415     0.16900
C3387       C  0.80063805  0.90278227  0.42269753    -0.30700
H3388       H  0.77502474  0.90246276  0.41082539     0.16900
H3389       H  0.83676637  0.91645519  0.28090369     0.16900
H3390       H  0.94734584  0.88279518  0.38255199     0.17000
H3391       H  0.88829440  0.98450276  0.36029075     0.16900
C3392       C  0.83792026  0.63742604  0.16201488     0.30800
C3393       C  0.88431231  0.60242006  0.11094314     0.30800
C3394       C  0.87540928  0.64684690  0.16637358    -0.05400
C3395       C  0.84105427  0.59745471  0.16713955    -0.06200
C3396       C  0.83261535  0.64043751  0.11723063    -0.06000
C3397       C  0.89937703  0.62808856  0.14234139    -0.05400
C3398       C  0.86187979  0.57933325  0.13710356    -0.06100
C3399       C  0.85900717  0.62666227  0.09165050    -0.06000
C3400       C  0.92844210  0.64725661  0.14372769    -0.31400
N3401       N  0.92269025  0.67589797  0.16736442     0.15100
C3402       C  0.89082269  0.67565242  0.18207107    -0.31400
H3403       H  0.87867313  0.69718805  0.19806546     0.17000
C3404       C  0.87919862  0.55378974  0.15508803    -0.30400
N3405       N  0.87996287  0.56157388  0.19398006     0.13800
C3406       C  0.85365750  0.58405586  0.20214113    -0.30400
C3407       C  0.84414849  0.61674721  0.05770447    -0.30700
N3408       N  0.81091755  0.61164846  0.06553918     0.14300
H3409       H  0.85866803  0.60314092  0.03484522     0.16900
C3410       C  0.80272906  0.63063002  0.09867275    -0.30700
H3411       H  0.77809148  0.63043435  0.11329438     0.16900
H3412       H  0.84925272  0.59640549  0.23079302     0.16900
H3413       H  0.94917945  0.64491222  0.12265848     0.17000
H3414       H  0.89977749  0.53927011  0.14025179     0.16900
C3415       C  0.61857183  0.61300048  0.42350303     0.30800
C3416       C  0.65770382  0.65342729  0.36955280     0.30800
C3417       C  0.65469940  0.62629222  0.43733876    -0.05400
C3418       C  0.62654273  0.59719596  0.38232600    -0.06200
C3419       C  0.60501130  0.64828236  0.41426039    -0.06000
C3420       C  0.67554704  0.64297398  0.40810812    -0.05400
C3421       C  0.64452028  0.61767079  0.35426689    -0.06100
C3422       C  0.62366465  0.66908942  0.38741777    -0.06000
C3423       C  0.70489059  0.62327059  0.40622848    -0.31400
N3424       N  0.70148394  0.59543867  0.42916667     0.15100
C3425       C  0.67623938  0.60519444  0.45447243    -0.31400
H3426       H  0.66586121  0.59073655  0.47632707     0.17000
C3427       C  0.62710915  0.61208398  0.31952207    -0.30400
N3428       N  0.59959774  0.59173803  0.32614506     0.18400
C3429       C  0.60186513  0.57977888  0.36241577    -0.30400
C3430       C  0.61428487  0.70256782  0.39793192    -0.30700
N3431       N  0.59173786  0.70252082  0.42886840     0.14300
H3432       H  0.62205319  0.72529026  0.38261448     0.16900
C3433       C  0.58926369  0.67007918  0.44119671    -0.30700
H3434       H  0.57356462  0.66233869  0.46585416     0.16900
H3435       H  0.58176858  0.56493162  0.37585297     0.16900
H3436       H  0.72199131  0.62561785  0.38187092     0.17000
H3437       H  0.63237805  0.62601650  0.29334025     0.16900
C3438       C  0.65168806  0.86895152  0.14758046     0.30800
C3439       C  0.61639412  0.90924257  0.09102722     0.30800
C3440       C  0.61363288  0.85968281  0.13895185    -0.05400
C3441       C  0.64879653  0.90861578  0.15630628    -0.06200
C3442       C  0.66599929  0.86725459  0.10598514    -0.06000
C3443       C  0.59634182  0.88150772  0.11146923    -0.05400
C3444       C  0.63399893  0.92903181  0.12567935    -0.06100
C3445       C  0.64644174  0.88413346  0.07569995    -0.06000
C3446       C  0.57510298  0.86099111  0.08955078    -0.31400
N3447       N  0.57668789  0.82891635  0.10189335     0.15100
C3448       C  0.59983375  0.82712321  0.13159421    -0.31400
H3449       H  0.60800519  0.80340366  0.14469714     0.17000
C3450       C  0.61651926  0.95544079  0.14372573    -0.30400
N3451       N  0.60998349  0.94623810  0.18050558     0.13800
C3452       C  0.63304419  0.92162937  0.19009784    -0.30400
C3453       C  0.67162756  0.89434862  0.05237294    -0.30700
N3454       N  0.70041876  0.90032725  0.07435188     0.14300
H3455       H  0.66427735  0.90764091  0.02707945     0.16900
C3456       C  0.69966290  0.87636194  0.10141574    -0.30700
H3457       H  0.71874681  0.87385221  0.12405671     0.16900
H3458       H  0.63261368  0.90734263  0.21655276     0.16900
H3459       H  0.56207938  0.86762182  0.06259399     0.17000
H3460       H  0.59962001  0.97256621  0.12804671     0.16900
O3461       O  0.55401310  0.58006870  0.09277257    -0.74500
O3462       O  0.59618202  0.55009921  0.05904448    -0.53400
C3463       C  0.58636274  0.57466721  0.08481540     0.79300
O3464       O  0.93778484  0.92423374  0.06168697    -0.59100
O3465       O  0.89678182  0.96028448  0.03876673    -0.52100
C3466       C  0.90518401  0.93142603  0.05622718     0.71300
O3467       O  0.55579942  0.92957458  0.07059220    -0.73600
O3468       O  0.59901918  0.96116842  0.04489549    -0.54200
C3469       C  0.58897407  0.93453699  0.06557258     0.77300
O3470       O  0.94271506  0.58506401  0.08895175    -0.58800
O3471       O  0.89955103  0.55584646  0.05663923    -0.51900
C3472       C  0.91046694  0.57997099  0.08265338     0.73900
Zr3473     Zr  0.49727102  0.55646831  0.06848067     2.54700
O3474       O  0.48654046  0.54135261  0.13616930    -0.79300
O3475       O  0.49487503  0.61953625  0.07152667    -0.92800
Zr3476     Zr  0.49629966  0.95369802  0.05234224     2.64700
O3477       O  0.49106327  0.94958995  0.12356266    -0.97700
O3478       O  0.99616006  0.89115424  0.03203376    -0.79800
O3479       O  0.53185748  0.50458884  0.06100190    -0.83100
O3480       O  0.96175459  0.50594442  0.05936852    -2.17800
O3481       O  0.93813117  0.59407374  0.43716106    -0.66500
O3482       O  0.89505668  0.56180460  0.46199822    -0.51100
C3483       C  0.90498297  0.58874323  0.44179148     0.72300
O3484       O  0.55169657  0.93661312  0.41625828    -0.59400
O3485       O  0.59479353  0.96582848  0.44891076    -0.51400
C3486       C  0.58396356  0.94151079  0.42293993     0.74100
O3487       O  0.94115683  0.94241885  0.41298180    -0.70800
O3488       O  0.89906081  0.97177400  0.44745498    -0.49500
C3489       C  0.90891029  0.94759696  0.42122120     0.75400
O3490       O  0.55707635  0.59588942  0.44130675    -0.66100
O3491       O  0.59806752  0.56008355  0.46503343    -0.53300
C3492       C  0.58969454  0.58863157  0.44681884     0.73800
Zr3493     Zr  0.49780338  0.56923260  0.45360990     2.77500
O3494       O  0.50252588  0.57686961  0.38277202    -0.96900
O3495       O  0.49603410  0.62974946  0.47725908    -0.77700
Zr3496     Zr  0.49729591  0.96510682  0.43780207     2.70100
O3497       O  0.00949814  0.97254626  0.36894880    -0.79000
O3498       O  0.49510148  0.90224167  0.44233615    -0.98100
Zr3499     Zr  0.56932086  0.50907557  0.50320652     2.21500
Zr3500     Zr  0.92459572  0.51287820  0.00208932     2.11100
O3501       O  0.96272387  0.51847264  0.44541332    -2.46700
O3502       O  0.53193886  0.51652716  0.44637097    -0.78800
O3503       O  0.96234832  0.56219143  0.01036153    -0.71000
O3504       O  0.53213179  0.95979775  0.49505674    -2.31900
O3505       O  0.53248511  0.55985152  0.51059595    -2.28100
O3506       O  0.96205167  0.96191673  0.99503823    -0.72700
H3507       H  0.94736688  0.50424927  0.08256770     0.79300
H3508       H  0.54600245  0.93908804  0.49176349     0.80400
H3509       H  0.94901660  0.52061814  0.42171798     0.82600
H3510       H  0.54677090  0.58000717  0.51464975     0.80200
H3511       H  0.51601740  0.88784204  0.01679372     0.43200
H3512       H  0.97263664  0.89727177  0.45451908     0.42200
H3513       H  0.51599342  0.94994413  0.35727080     0.41900
H3514       H  0.98135557  0.58872775  0.37594416     0.39800
H3515       H  0.97863652  0.63329382  0.49599221     0.43000
H3516       H  0.51594408  0.62728511  0.05809727     0.37700
H3517       H  0.47354660  0.56119345  0.14839717     0.43900
H3518       H  0.97421095  0.92852907  0.12672398     0.40300
H3519       H  0.02106597  0.59288464  0.37951166     0.45200
H3520       H  0.49846930  0.62575214  0.09986174     0.43900
H3521       H  0.48108329  0.92639007  0.12737594     0.44000
H3522       H  0.99637362  0.89277146  0.41706141     0.44400
O3523       O  0.67559919  0.71041300  0.34154593    -0.74500
O3524       O  0.70409873  0.66369372  0.31301467    -0.53400
C3525       C  0.68081327  0.67700458  0.33881423     0.79300
O3526       O  0.67159791  0.81185755  0.17107318    -0.59100
O3527       O  0.69940173  0.85846844  0.20028854    -0.52100
C3528       C  0.67526420  0.84521914  0.17627781     0.71300
O3529       O  0.68379876  0.69819163  0.16691630    -0.73600
O3530       O  0.70748611  0.65642046  0.20517154    -0.54200
C3531       C  0.68796527  0.66584708  0.17513482     0.77300
O3532       O  0.67973745  0.82555459  0.32942574    -0.58800
O3533       O  0.70474561  0.86786286  0.29322071    -0.51900
C3534       C  0.68297061  0.85789953  0.32041131     0.73900
Zr3535     Zr  0.69838003  0.76480189  0.31170808     2.54700
O3536       O  0.63596230  0.76301662  0.30819018    -0.79300
O3537       O  0.70589058  0.76917148  0.38333878    -0.92800
Zr3538     Zr  0.69712471  0.75704577  0.19586099     2.64700
O3539       O  0.63658145  0.75610075  0.21418507    -0.97700
O3540       O  0.69441822  0.75534025  0.12368867    -0.79800
O3541       O  0.69768744  0.72486857  0.25550834    -0.83100
O3542       O  0.69908230  0.79663471  0.25185745    -2.17800
O3543       O  0.81222025  0.82466679  0.33708334    -0.66500
O3544       O  0.78780262  0.86659258  0.29974650    -0.51100
C3545       C  0.80769076  0.85709745  0.32939707     0.72300
O3546       O  0.81676665  0.69595443  0.17786907    -0.59400
O3547       O  0.79103308  0.65374699  0.21350242    -0.51400
C3548       C  0.81318644  0.66359826  0.18675672     0.74100
O3549       O  0.81944794  0.81063904  0.16246442    -0.70800
O3550       O  0.79148602  0.85757338  0.19149087    -0.49500
C3551       C  0.81438828  0.84403011  0.16526802     0.75400
O3552       O  0.82420355  0.71072662  0.33418786    -0.66100
O3553       O  0.79589772  0.66414736  0.30557136    -0.53300
C3554       C  0.82013195  0.67741288  0.32942128     0.73800
Zr3555     Zr  0.79901308  0.76532546  0.30906808     2.77500
O3556       O  0.85917024  0.76071392  0.28879904    -0.96900
O3557       O  0.80304059  0.76743378  0.38111799    -0.77700
Zr3558     Zr  0.79742509  0.75688877  0.19371201     2.70100
O3559       O  0.85961065  0.76003897  0.19853579    -0.79000
O3560       O  0.78979384  0.74765590  0.12243043    -0.98100
Zr3561     Zr  0.74754302  0.68680894  0.25851747     2.21500
Zr3562     Zr  0.74800904  0.83540427  0.24682925     2.11100
O3563       O  0.79805831  0.79750456  0.24947493    -2.46700
O3564       O  0.79636162  0.72553198  0.25354728    -0.78800
O3565       O  0.74835836  0.80039348  0.30586499    -0.71000
O3566       O  0.74753827  0.72144145  0.19907180    -2.31900
O3567       O  0.74896687  0.72954191  0.31336934    -2.28100
O3568       O  0.74715696  0.79270607  0.19195610    -0.72700
H3569       H  0.67851442  0.81072025  0.25176602     0.79300
H3570       H  0.74793717  0.70569497  0.17601632     0.80400
H3571       H  0.81838983  0.81166008  0.24824446     0.82600
H3572       H  0.74958055  0.71778486  0.33812349     0.80200
H3573       H  0.70817666  0.77543553  0.11570354     0.43200
H3574       H  0.77843933  0.76909148  0.11380768     0.42200
H3575       H  0.86783433  0.75376428  0.17142277     0.41900
H3576       H  0.86446242  0.78164614  0.27404503     0.39800
H3577       H  0.82785711  0.77018348  0.38663940     0.43000
H3578       H  0.68237905  0.77291062  0.39400493     0.37700
H3579       H  0.63040464  0.73993910  0.29596422     0.43900
H3580       H  0.63235872  0.77764686  0.23043089     0.40300
H3581       H  0.87259923  0.76311496  0.31360502     0.45200
H3582       H  0.71763304  0.79161244  0.38853139     0.43900
H3583       H  0.62424650  0.76002333  0.18916046     0.44000
H3584       H  0.81331619  0.74863782  0.11131185     0.44400
C3585       C  0.66244913  0.63885215  0.64920664     0.30800
C3586       C  0.61368807  0.59808574  0.60738808     0.30800
C3587       C  0.66594368  0.63529035  0.60233838    -0.05400
C3588       C  0.66052078  0.60084715  0.66034396    -0.06200
C3589       C  0.62467915  0.64836930  0.65433653    -0.06000
C3590       C  0.63758256  0.61889635  0.58154071    -0.05400
C3591       C  0.63931160  0.57896589  0.63466687    -0.06100
C3592       C  0.60015711  0.62732259  0.63494974    -0.06000
C3593       C  0.64960461  0.60219310  0.54862039    -0.31400
N3594       N  0.68250167  0.59480384  0.55445455     0.15100
C3595       C  0.69356573  0.61886307  0.58270114    -0.31400
H3596       H  0.71916772  0.61966939  0.59463602     0.17000
C3597       C  0.62670726  0.55461427  0.65762283    -0.30400
N3598       N  0.62664985  0.56762856  0.69527153     0.13800
C3599       C  0.65155560  0.59167962  0.69819481    -0.30400
C3600       C  0.56982236  0.64462439  0.63835157    -0.30700
N3601       N  0.57529314  0.67470930  0.65917160     0.14300
H3602       H  0.54708972  0.63913143  0.62134014     0.16900
C3603       C  0.60830922  0.67688361  0.66992775    -0.30700
H3604       H  0.61996908  0.69948771  0.68354375     0.16900
H3605       H  0.65620948  0.60770295  0.72460222     0.16900
H3606       H  0.63309076  0.58741601  0.52926794     0.17000
H3607       H  0.60718672  0.53715379  0.64583954     0.16900
N3608       N  0.99684918  0.71893093  0.65412786    -0.35800
N3609       N  0.54405783  0.74639198  0.60345231    -0.56300
N3610       N  0.99369007  0.79213187  0.56977728    -0.35800
N3611       N  0.94453404  0.75010871  0.61370978    -0.56300
C3612       C  0.52488801  0.70910369  0.67015814     0.27800
C3613       C  0.97050355  0.71233846  0.67788229     0.27800
C3614       C  0.51901633  0.81111903  0.58450036     0.27800
C3615       C  0.96398216  0.80872507  0.57832869     0.27800
C3616       C  0.56483159  0.72235189  0.61722111     0.36400
C3617       C  0.56334715  0.76761888  0.58313928     0.36400
C3618       C  0.92678478  0.72452971  0.62895887     0.36400
C3619       C  0.92694748  0.76053737  0.58249251     0.36400
C3620       C  0.51691943  0.69862483  0.70775243    -0.21100
C3621       C  0.98224631  0.69828451  0.71249167    -0.21100
C3622       C  0.50548669  0.84049239  0.60385621    -0.21100
C3623       C  0.97013028  0.83897423  0.60095728    -0.21100
C3624       C  0.59749309  0.72542738  0.60107315    -0.22100
C3625       C  0.59666203  0.75522307  0.58000865    -0.22100
C3626       C  0.89723433  0.71802088  0.60694867    -0.22100
C3627       C  0.89724361  0.74140238  0.57729205    -0.22100
C3628       C  0.55597015  0.70410256  0.65068067    -0.17500
C3629       C  0.93801860  0.70742513  0.66234707    -0.17500
C3630       C  0.93131136  0.79420731  0.57174120    -0.17500
C3631       C  0.55388470  0.80195030  0.58470457    -0.17500
H3632       H  0.53428969  0.68802234  0.72907968     0.15400
H3633       H  0.96688093  0.68733533  0.73560851     0.15400
H3634       H  0.51851237  0.85976897  0.62245873     0.15400
H3635       H  0.95192554  0.85599481  0.61626167     0.15400
H3636       H  0.62059584  0.71133335  0.60795262     0.13700
H3637       H  0.61874348  0.76868194  0.56874336     0.13700
H3638       H  0.87696372  0.69991523  0.61259967     0.13700
H3639       H  0.87641239  0.74619503  0.55702206     0.13700
H3640       H  0.99477921  0.71967709  0.62345765     0.27000
H3641       H  0.99658243  0.76830448  0.55415443     0.27000
C3642       C  0.87656404  0.90665098  0.58015734     0.30800
C3643       C  0.83717545  0.86705319  0.63468251     0.30800
C3644       C  0.88982292  0.87138150  0.58971951    -0.05400
C3645       C  0.86884983  0.92280780  0.62109232    -0.06200
C3646       C  0.84025048  0.89360886  0.56659313    -0.06000
C3647       C  0.87118610  0.85104001  0.61707150    -0.05400
C3648       C  0.85029059  0.90303090  0.64922788    -0.06100
C3649       C  0.81934362  0.87707283  0.59596750    -0.06000
C3650       C  0.88025603  0.81740061  0.60685685    -0.31400
N3651       N  0.90251597  0.81696897  0.57564134     0.15100
C3652       C  0.90487005  0.84917855  0.56268930    -0.31400
H3653       H  0.92037483  0.85655587  0.53771394     0.17000
C3654       C  0.86664297  0.90960754  0.68430089    -0.30400
N3655       N  0.89464438  0.92931498  0.67783770     0.13800
C3656       C  0.89356450  0.94022180  0.64105590    -0.30400
C3657       C  0.79017000  0.89703646  0.59801075    -0.30700
N3658       N  0.79402492  0.92515394  0.57564003     0.14300
H3659       H  0.77311165  0.89474215  0.62241443     0.16900
C3660       C  0.81895054  0.91525823  0.54999162    -0.30700
H3661       H  0.82991756  0.93021853  0.52906602     0.16900
H3662       H  0.91434429  0.95429910  0.62778951     0.16900
H3663       H  0.87243665  0.79487586  0.62243204     0.17000
H3664       H  0.86013933  0.89684010  0.71089074     0.16900
N3665       N  0.58934666  0.50879226  0.71267912    -0.35800
N3666       N  0.54537719  0.59692180  0.74402941    -0.56300
N3667       N  0.58170809  0.52469736  0.80500725    -0.35800
N3668       N  0.54183557  0.94082970  0.74591323    -0.56300
C3669       C  0.57447132  0.53975042  0.71016516     0.27800
C3670       C  0.56696282  0.98615467  0.69629676     0.27800
C3671       C  0.55874754  0.55061916  0.80130108     0.27800
C3672       C  0.56482419  0.99473665  0.79620134     0.27800
C3673       C  0.57453788  0.60122424  0.72351667     0.36400
C3674       C  0.55327559  0.61040602  0.77981216     0.36400
C3675       C  0.55577592  0.92722022  0.71269977     0.36400
C3676       C  0.56466195  0.93348778  0.77386089     0.36400
C3677       C  0.54308301  0.53671332  0.69193095    -0.21100
C3678       C  0.53810546  0.00191903  0.68233281    -0.21100
C3679       C  0.52748397  0.53766528  0.79046206    -0.21100
C3680       C  0.53076158  0.00229015  0.78827826    -0.21100
C3681       C  0.58887677  0.63202527  0.73812669    -0.22100
C3682       C  0.57174291  0.64007325  0.77333234    -0.22100
C3683       C  0.57019617  0.89619423  0.72267199    -0.22100
C3684       C  0.57952065  0.90208980  0.76176170    -0.22100
C3685       C  0.59304188  0.57019010  0.71311621    -0.17500
C3686       C  0.57559819  0.95154817  0.69222137    -0.17500
C3687       C  0.58148139  0.96207050  0.79358360    -0.17500
C3688       C  0.56771554  0.58564047  0.80512716    -0.17500
H3689       H  0.52775778  0.55799195  0.68213297     0.15400
H3690       H  0.51796147  0.98999670  0.66511064     0.15400
H3691       H  0.50469772  0.55255118  0.78550102     0.15400
H3692       H  0.51035851  0.98443162  0.78178177     0.15400
H3693       H  0.61355779  0.64274417  0.73192985     0.13700
H3694       H  0.58129895  0.65815866  0.79608183     0.13700
H3695       H  0.58292367  0.87770270  0.70280308     0.13700
H3696       H  0.60180182  0.89004906  0.77288129     0.13700
H3697       H  0.61406774  0.50374202  0.72314090     0.27000
H3698       H  0.60807033  0.52749158  0.80982093     0.27000
N3699       N  0.91214596  0.49530475  0.70016722    -0.35800
N3700       N  0.94724908  0.92296092  0.76117623    -0.56300
N3701       N  0.90669380  0.51337436  0.79343877    -0.35800
N3702       N  0.95411324  0.57932414  0.75764278    -0.56300
C3703       C  0.93519041  0.96956957  0.70376232     0.27800
C3704       C  0.92901293  0.52471196  0.70944089     0.27800
C3705       C  0.91960088  0.98130959  0.79464747     0.27800
C3706       C  0.92968627  0.53545664  0.80919377     0.27800
C3707       C  0.93910267  0.90965651  0.72536291     0.36400
C3708       C  0.91781071  0.91974342  0.78143407     0.36400
C3709       C  0.93018539  0.58629583  0.73080954     0.36400
C3710       C  0.94181849  0.59381491  0.79127055     0.36400
C3711       C  0.96634550  0.98181259  0.71597691    -0.21100
C3712       C  0.96273579  0.51639994  0.71859591    -0.21100
C3713       C  0.95081294  0.98370124  0.81354467    -0.21100
C3714       C  0.95721840  0.51805314  0.82430195    -0.21100
C3715       C  0.91970771  0.88060921  0.73177111    -0.22100
C3716       C  0.90243399  0.88953303  0.76660425    -0.22100
C3717       C  0.91613604  0.61803580  0.74305115    -0.22100
C3718       C  0.92743694  0.62482957  0.78132915    -0.22100
C3719       C  0.92534052  0.93481299  0.70004940    -0.17500
C3720       C  0.91259273  0.55761981  0.71215561    -0.17500
C3721       C  0.92232523  0.57044753  0.81353332    -0.17500
C3722       C  0.90029019  0.95134078  0.79179888    -0.17500
H3723       H  0.98859591  0.96644970  0.72221845     0.15400
H3724       H  0.98338207  0.53351547  0.72625814     0.15400
H3725       H  0.96579608  0.96212018  0.82322018     0.15400
H3726       H  0.97746602  0.52864286  0.84265287     0.15400
H3727       H  0.90984946  0.86267941  0.70903610     0.13700
H3728       H  0.87725208  0.87981633  0.77237973     0.13700
H3729       H  0.89314784  0.62968179  0.73347032     0.13700
H3730       H  0.91557136  0.64366180  0.80166598     0.13700
H3731       H  0.88580186  0.49321438  0.69479438     0.27000
H3732       H  0.88247794  0.51947079  0.78221957     0.27000
C3733       C  0.61020251  0.91929196  0.89619036     0.30800
C3734       C  0.65679485  0.88428088  0.84507236     0.30800
C3735       C  0.59523740  0.89351124  0.86485955    -0.05400
C3736       C  0.63263327  0.94231850  0.86996827    -0.06200
C3737       C  0.63548772  0.89494145  0.91548247    -0.06000
C3738       C  0.61926461  0.87495031  0.84066771    -0.05400
C3739       C  0.65357651  0.92421704  0.84003228    -0.06100
C3740       C  0.66195785  0.88112777  0.88993287    -0.06000
C3741       C  0.60372302  0.84671371  0.82392245    -0.31400
N3742       N  0.57173429  0.84642027  0.83826985     0.15100
C3743       C  0.56598360  0.87458508  0.86278172    -0.31400
H3744       H  0.54485559  0.87686875  0.88350702     0.17000
C3745       C  0.64107689  0.93753196  0.80495775    -0.30400
N3746       N  0.61461919  0.95986647  0.81290776     0.13800
C3747       C  0.61524202  0.96775363  0.85178195    -0.30400
C3748       C  0.69176110  0.89090585  0.90868727    -0.30700
N3749       N  0.68339352  0.91019868  0.94157000     0.14300
H3750       H  0.71643901  0.89110907  0.89414679     0.16900
C3751       C  0.65022580  0.90482580  0.94946627    -0.30700
H3752       H  0.63556911  0.91903113  0.97178896     0.16900
H3753       H  0.59458478  0.98228248  0.86644391     0.16900
H3754       H  0.61582989  0.82541769  0.80739870     0.17000
H3755       H  0.64573077  0.92521127  0.77633767     0.16900
N3756       N  0.00031104  0.72987113  0.93532927    -0.35800
N3757       N  0.54945989  0.77278210  0.89514849    -0.56300
N3758       N  0.99683626  0.80510994  0.85024536    -0.35800
N3759       N  0.94909852  0.77230169  0.89243945    -0.56300
C3760       C  0.53085931  0.71304112  0.92817552     0.27800
C3761       C  0.97514687  0.71025704  0.91916728     0.27800
C3762       C  0.52352898  0.81005651  0.83051626     0.27800
C3763       C  0.96895071  0.81441087  0.83034947     0.27800
C3764       C  0.56798825  0.76122890  0.92508721     0.36400
C3765       C  0.56717729  0.79827249  0.87978142     0.36400
C3766       C  0.93146997  0.75375780  0.91752749     0.36400
C3767       C  0.92814088  0.79681472  0.88008950     0.36400
C3768       C  0.52450393  0.68258311  0.90605629    -0.21100
C3769       C  0.98862151  0.68119415  0.89901988    -0.21100
C3770       C  0.51212123  0.82304920  0.79518781    -0.21100
C3771       C  0.97812278  0.82793963  0.79457806    -0.21100
C3772       C  0.59795823  0.77998023  0.92983954    -0.22100
C3773       C  0.59732222  0.80409785  0.90098293    -0.22100
C3774       C  0.89864844  0.76695800  0.92275274    -0.22100
C3775       C  0.89668101  0.79530980  0.89946275    -0.22100
C3776       C  0.56365072  0.72725572  0.93470032    -0.17500
C3777       C  0.94043954  0.71962405  0.91932769    -0.17500
C3778       C  0.93706646  0.81726940  0.84849871    -0.17500
C3779       C  0.55593937  0.81508462  0.84618650    -0.17500
H3780       H  0.54257199  0.66494856  0.89148476     0.15400
H3781       H  0.97539965  0.66219814  0.88020770     0.15400
H3782       H  0.52773013  0.83320466  0.77178588     0.15400
H3783       H  0.96138139  0.83955481  0.77339607     0.15400
H3784       H  0.61934538  0.77442747  0.94904864     0.13700
H3785       H  0.61773277  0.82195711  0.89503613     0.13700
H3786       H  0.87751705  0.75515604  0.93805603     0.13700
H3787       H  0.87374358  0.81046818  0.89503098     0.13700
H3788       H  0.99764993  0.75360560  0.95120774     0.27000
H3789       H  0.99775230  0.80369358  0.88096509     0.27000
C3790       C  0.84288675  0.65312104  0.85790322     0.30800
C3791       C  0.87731810  0.61359965  0.91585019     0.30800
C3792       C  0.88056244  0.66306594  0.86799182    -0.05400
C3793       C  0.82717346  0.65405839  0.89876238    -0.06200
C3794       C  0.84700007  0.61348911  0.84915568    -0.06000
C3795       C  0.89729103  0.64179195  0.89635650    -0.05400
C3796       C  0.84628635  0.63799921  0.92992408    -0.06100
C3797       C  0.86137588  0.59343552  0.88039835    -0.06000
C3798       C  0.91788126  0.66260836  0.91873044    -0.31400
N3799       N  0.91686550  0.69431991  0.90532132     0.15100
C3800       C  0.89427211  0.69563784  0.87495548    -0.31400
H3801       H  0.88672927  0.71901277  0.86069640     0.17000
C3802       C  0.82068003  0.62745719  0.95243465    -0.30400
N3803       N  0.79266600  0.62024027  0.92951860     0.13800
C3804       C  0.79369516  0.64355981  0.90173978    -0.30400
C3805       C  0.88026474  0.56761864  0.86317566    -0.30700
N3806       N  0.88764018  0.57687055  0.82667138     0.14300
H3807       H  0.89695203  0.55075092  0.87946092     0.16900
C3808       C  0.86418678  0.60086252  0.81611930    -0.30700
H3809       H  0.86438061  0.61476985  0.78943238     0.16900
H3810       H  0.77539528  0.64488064  0.87806612     0.16900
H3811       H  0.93058540  0.65629064  0.94601799     0.17000
H3812       H  0.82739875  0.61562714  0.97899165     0.16900
N3813       N  0.78395595  0.98251893  0.52504564    -0.35800
N3814       N  0.74027061  0.98207226  0.61151995    -0.56300
N3815       N  0.71604881  0.94491222  0.51695521    -0.35800
N3816       N  0.74389401  0.97964021  0.95210787    -0.56300
C3817       C  0.79985838  0.98600950  0.56047796     0.27800
C3818       C  0.80626637  0.97990392  0.99489236     0.27800
C3819       C  0.70428041  0.95673334  0.55214198     0.27800
C3820       C  0.69240926  0.95455815  0.99050229     0.27800
C3821       C  0.77172817  0.97288408  0.62212387     0.36400
C3822       C  0.72102634  0.95421502  0.61852839     0.36400
C3823       C  0.77353524  0.97501371  0.93398099     0.36400
C3824       C  0.72069037  0.96181717  0.93075290     0.36400
C3825       C  0.83380023  0.99264524  0.55265790    -0.21100
C3826       C  0.83781437  0.98677540  0.01132933    -0.21100
C3827       C  0.67317431  0.97312714  0.54835087    -0.21100
C3828       C  0.66430715  0.96877914  0.00889723    -0.21100
C3829       C  0.76753588  0.95208503  0.65437870    -0.22100
C3830       C  0.73429574  0.93929776  0.65167722    -0.22100
C3831       C  0.76699905  0.96450656  0.89481912    -0.22100
C3832       C  0.73273880  0.95566897  0.89270458    -0.22100
C3833       C  0.79237373  0.96185579  0.58940777    -0.17500
C3834       C  0.79986081  0.96245030  0.95752570    -0.17500
C3835       C  0.69565116  0.94429943  0.95155112    -0.17500
C3836       C  0.70911588  0.93654250  0.58357188    -0.17500
H3837       H  0.85386480  0.99594348  0.57460112     0.15400
H3838       H  0.86121396  0.98943733  0.99531327     0.15400
H3839       H  0.65595127  0.98162093  0.57205039     0.15400
H3840       H  0.64023148  0.97420336  0.99527397     0.15400
H3841       H  0.78798749  0.93973553  0.67034894     0.13700
H3842       H  0.72503751  0.91710698  0.66678495     0.13700
H3843       H  0.78545284  0.95893906  0.87186356     0.13700
H3844       H  0.72015871  0.94269567  0.86779232     0.13700
H3845       H  0.75804130  0.98324568  0.52193776     0.27000
H3846       H  0.73668298  0.92777505  0.51162638     0.27000
N3847       N  0.71200818  0.53862730  0.48106572    -0.35800
N3848       N  0.75078899  0.54321468  0.55402528    -0.56300
N3849       N  0.77903853  0.57806014  0.48991332    -0.35800
N3850       N  0.75454523  0.53760954  0.89466520    -0.56300
C3851       C  0.68874006  0.54133280  0.51047924     0.27800
C3852       C  0.69447582  0.53456546  0.94502852     0.27800
C3853       C  0.80205481  0.56908582  0.51618663     0.27800
C3854       C  0.79045470  0.56410303  0.95362847     0.27800
C3855       C  0.72089153  0.54681564  0.57177398     0.36400
C3856       C  0.77334462  0.56167270  0.57562885     0.36400
C3857       C  0.72315195  0.54614746  0.88329038     0.36400
C3858       C  0.77373879  0.56528006  0.88701817     0.36400
C3859       C  0.65742942  0.53405117  0.49360487    -0.21100
C3860       C  0.66050089  0.52841990  0.95301477    -0.21100
C3861       C  0.83012612  0.55467532  0.49794019    -0.21100
C3862       C  0.82190791  0.54861660  0.95811744    -0.21100
C3863       C  0.72682490  0.55747047  0.61102394    -0.22100
C3864       C  0.76079024  0.56749417  0.61353119    -0.22100
C3865       C  0.72754085  0.56609878  0.85038167    -0.22100
C3866       C  0.76063762  0.57932084  0.85324107    -0.22100
C3867       C  0.69460487  0.55900073  0.54793040    -0.17500
C3868       C  0.70226722  0.55797612  0.91540530    -0.17500
C3869       C  0.78554080  0.58359433  0.92160030    -0.17500
C3870       C  0.79868726  0.57910931  0.55515185    -0.17500
H3871       H  0.63372743  0.53188472  0.50922594     0.15400
H3872       H  0.64036730  0.52521199  0.93115651     0.15400
H3873       H  0.85410904  0.54897608  0.51170149     0.15400
H3874       H  0.83927974  0.53973839  0.93471900     0.15400
H3875       H  0.70797597  0.56236350  0.63375752     0.13700
H3876       H  0.77278545  0.58071595  0.63867391     0.13700
H3877       H  0.70711792  0.57780349  0.83370885     0.13700
H3878       H  0.76990217  0.60118657  0.83753233     0.13700
H3879       H  0.73803731  0.53837616  0.48443983     0.27000
H3880       H  0.75826523  0.59504623  0.49504859     0.27000
C3881       C  0.83091118  0.88356702  0.85590037     0.30800
C3882       C  0.88059801  0.92323980  0.89772487     0.30800
C3883       C  0.86845788  0.87360941  0.85033126    -0.05400
C3884       C  0.83319227  0.92171896  0.84534789    -0.06200
C3885       C  0.82778498  0.88655409  0.90264807    -0.06000
C3886       C  0.89351147  0.89400215  0.86966569    -0.05400
C3887       C  0.85505836  0.94299803  0.87093940    -0.06100
C3888       C  0.85642018  0.90250349  0.92337966    -0.06000
C3889       C  0.92378891  0.87672159  0.86431154    -0.31400
N3890       N  0.91757216  0.84717171  0.84258461     0.15100
C3891       C  0.88420946  0.84538639  0.83334502    -0.31400
H3892       H  0.87203031  0.82326279  0.81937963     0.17000
C3893       C  0.86780730  0.96734648  0.84807302    -0.30400
N3894       N  0.86698617  0.95476899  0.81025084     0.13800
C3895       C  0.84152131  0.93133740  0.80752214    -0.30400
C3896       C  0.84459594  0.91906230  0.95636960    -0.30700
N3897       N  0.81167359  0.92662185  0.95084356     0.14300
H3898       H  0.86134498  0.93368323  0.97555159     0.16900
C3899       C  0.80030694  0.90280961  0.92259691    -0.30700
H3900       H  0.77467159  0.90231503  0.91077165     0.16900
H3901       H  0.83592486  0.91593867  0.78090719     0.16900
H3902       H  0.94733262  0.88203610  0.87999334     0.17000
H3903       H  0.88787357  0.98424190  0.85967793     0.16900
C3904       C  0.83807541  0.63733859  0.66265480     0.30800
C3905       C  0.88477447  0.60241293  0.61179981     0.30800
C3906       C  0.87552974  0.64631749  0.66780644    -0.05400
C3907       C  0.84082038  0.59722944  0.66721323    -0.06200
C3908       C  0.83349482  0.64100726  0.61780932    -0.06000
C3909       C  0.89974202  0.62778377  0.64375976    -0.05400
C3910       C  0.86160891  0.57923948  0.63712051    -0.06100
C3911       C  0.86000493  0.62708842  0.59240995    -0.06000
C3912       C  0.92840187  0.64774344  0.64514509    -0.31400
N3913       N  0.92243577  0.67581126  0.66973414     0.15100
C3914       C  0.89061945  0.67494483  0.68433411    -0.31400
H3915       H  0.87822422  0.69614542  0.70072567     0.17000
C3916       C  0.87805942  0.55283362  0.65461742    -0.30400
N3917       N  0.87906081  0.56013966  0.69358922     0.13800
C3918       C  0.85309370  0.58304696  0.70200360    -0.30400
C3919       C  0.84531732  0.61740614  0.55825232    -0.30700
N3920       N  0.81199587  0.61260583  0.56584214     0.14300
H3921       H  0.85979362  0.60337896  0.53562354     0.16900
C3922       C  0.80369907  0.63183016  0.59872603    -0.30700
H3923       H  0.77885194  0.63200546  0.61291771     0.16900
H3924       H  0.84872077  0.59499409  0.73089246     0.16900
H3925       H  0.94886308  0.64630518  0.62364354     0.17000
H3926       H  0.89824648  0.53793449  0.63954764     0.16900
C3927       C  0.61834250  0.61454354  0.92518378     0.30800
C3928       C  0.65709302  0.65407013  0.87002799     0.30800
C3929       C  0.65511924  0.62696240  0.93786417    -0.05400
C3930       C  0.62483856  0.59866754  0.88375934    -0.06200
C3931       C  0.60545599  0.65012858  0.91649983    -0.06000
C3932       C  0.67562919  0.64313607  0.90793458    -0.05400
C3933       C  0.64302000  0.61844516  0.85530748    -0.06100
C3934       C  0.62373102  0.67040217  0.88890769    -0.06000
C3935       C  0.70436839  0.62254681  0.90488594    -0.31400
N3936       N  0.70091518  0.59491047  0.92813770     0.15100
C3937       C  0.67660722  0.60537707  0.95431461    -0.31400
H3938       H  0.66643148  0.59109730  0.97645064     0.17000
C3939       C  0.62596356  0.61208244  0.82054836    -0.30400
N3940       N  0.59824050  0.59203860  0.82740312     0.18400
C3941       C  0.59971618  0.58129869  0.86426114    -0.30400
C3942       C  0.61423447  0.70401684  0.89858827    -0.30700
N3943       N  0.59237135  0.70445645  0.93019939     0.14300
H3944       H  0.62137591  0.72644419  0.88243122     0.16900
C3945       C  0.59043477  0.67232965  0.94354069    -0.30700
H3946       H  0.57519464  0.66498798  0.96874262     0.16900
H3947       H  0.57912788  0.56715732  0.87785076     0.16900
H3948       H  0.72057682  0.62420177  0.87959692     0.17000
H3949       H  0.63190919  0.62494425  0.79382396     0.16900
C3950       C  0.65150652  0.86816643  0.64686615     0.30800
C3951       C  0.61703509  0.90817886  0.58953621     0.30800
C3952       C  0.61359346  0.85859486  0.63733924    -0.05400
C3953       C  0.64854910  0.90778815  0.65539482    -0.06200
C3954       C  0.66670949  0.86665411  0.60567219    -0.06000
C3955       C  0.59686989  0.88011489  0.60922299    -0.05400
C3956       C  0.63400891  0.92799406  0.62455283    -0.06100
C3957       C  0.64759251  0.88334061  0.57486817    -0.06000
C3958       C  0.57636493  0.85927562  0.58655483    -0.31400
N3959       N  0.57734115  0.82732924  0.59944434     0.15100
C3960       C  0.59983505  0.82593170  0.62990726    -0.31400
H3961       H  0.60745290  0.80242456  0.64377533     0.17000
C3962       C  0.61678560  0.95471938  0.64221393    -0.30400
N3963       N  0.61037835  0.94605980  0.67922783     0.13800
C3964       C  0.63326715  0.92139396  0.68911487    -0.30400
C3965       C  0.67319472  0.89372922  0.55217143    -0.30700
N3966       N  0.70154112  0.90006586  0.57484206     0.14300
H3967       H  0.66636398  0.90654583  0.52629312     0.16900
C3968       C  0.70038985  0.87626495  0.60210108    -0.30700
H3969       H  0.71896484  0.87414748  0.62537168     0.16900
H3970       H  0.63320639  0.90780407  0.71610834     0.16900
H3971       H  0.56394248  0.86580351  0.55918666     0.17000
H3972       H  0.59998276  0.97177925  0.62632141     0.16900
O3973       O  0.55326875  0.57862232  0.59313440    -0.74500
O3974       O  0.59528709  0.54947701  0.55814818    -0.53400
C3975       C  0.58548966  0.57359527  0.58460004     0.79300
O3976       O  0.93794365  0.92378817  0.56203816    -0.59100
O3977       O  0.89701185  0.96005128  0.53946930    -0.52100
C3978       C  0.90536964  0.93108588  0.55681704     0.71300
O3979       O  0.55646045  0.92826381  0.56910947    -0.73600
O3980       O  0.59948741  0.96029265  0.54378105    -0.54200
C3981       C  0.58959127  0.93342766  0.56413789     0.77300
O3982       O  0.94316363  0.58459410  0.59003352    -0.58800
O3983       O  0.89987353  0.55576276  0.55741528    -0.51900
C3984       C  0.91089532  0.57976380  0.58358331     0.73900
Zr3985     Zr  0.49701612  0.55606934  0.56754216     2.54700
O3986       O  0.48450253  0.54304427  0.63558234    -0.79300
O3987       O  0.49700350  0.61916253  0.56641279    -0.92800
Zr3988     Zr  0.49675775  0.95236886  0.55165048     2.64700
O3989       O  0.49197454  0.94613620  0.62285112    -0.97700
O3990       O  0.99466900  0.89103732  0.53362592    -0.79800
O3991       O  0.53134147  0.50398383  0.56029123    -0.83100
O3992       O  0.96173695  0.50530284  0.55959071    -2.17800
O3993       O  0.93791297  0.59405247  0.93666383    -0.66500
O3994       O  0.89495801  0.56206832  0.96216235    -0.51100
C3995       C  0.90480297  0.58884501  0.94171097     0.72300
O3996       O  0.55169797  0.93744273  0.91736476    -0.59400
O3997       O  0.59483944  0.96646328  0.95008254    -0.51400
C3998       C  0.58397237  0.94217036  0.92413029     0.74100
O3999       O  0.94134109  0.94200389  0.91269130    -0.70800
O4000       O  0.89932554  0.97169629  0.94700382    -0.49500
C4001       C  0.90907199  0.94734131  0.92082152     0.75400
O4002       O  0.55694738  0.59795411  0.94358985    -0.66100
O4003       O  0.59786688  0.56176196  0.96646216    -0.53300
C4004       C  0.58953326  0.59053146  0.94880296     0.73800
Zr4005     Zr  0.49804649  0.57014441  0.95471817     2.77500
O4006       O  0.50270477  0.57892583  0.88384915    -0.96900
O4007       O  0.49580932  0.63089823  0.97757705    -0.77700
Zr4008     Zr  0.49741908  0.96639438  0.93833938     2.70100
O4009       O  0.01067031  0.97487009  0.86945268    -0.79000
O4010       O  0.49483967  0.90365058  0.94351686    -0.98100
Zr4011     Zr  0.56995167  0.51007251  0.00415896     2.21500
Zr4012     Zr  0.92455499  0.51275740  0.50251402     2.11100
O4013       O  0.96275997  0.51812575  0.94494079    -2.46700
O4014       O  0.53236317  0.51748598  0.94742757    -0.78800
O4015       O  0.96265518  0.56187012  0.51133909    -0.71000
O4016       O  0.53193463  0.96084697  0.99585989    -2.31900
O4017       O  0.53282328  0.56081318  0.01170845    -2.28100
O4018       O  0.96184716  0.96192101  0.49512597    -0.72700
H4019       H  0.94733547  0.50340085  0.58271927     0.79300
H4020       H  0.54565350  0.94003614  0.99274255     0.80400
H4021       H  0.94908187  0.52007820  0.92125794     0.82600
H4022       H  0.54688558  0.58110989  0.01597344     0.80200
H4023       H  0.51850190  0.88775450  0.51441991     0.43200
H4024       H  0.97329704  0.89648292  0.95223242     0.42200
H4025       H  0.51877428  0.95497171  0.85780509     0.41900
H4026       H  0.97865829  0.58893347  0.87558171     0.39800
H4027       H  0.97469352  0.63266246  0.99348999     0.43000
H4028       H  0.51979109  0.62574405  0.55615447     0.37700
H4029       H  0.47669395  0.56527713  0.64843448     0.43900
H4030       H  0.97348759  0.92979206  0.62706736     0.40300
H4031       H  0.01791455  0.59645110  0.87901380     0.45200
H4032       H  0.49714555  0.62698229  0.59462537     0.43900
H4033       H  0.51220790  0.93201057  0.62983069     0.44000
H4034       H  0.99554969  0.89346621  0.91343916     0.44400
O4035       O  0.67481383  0.71084669  0.84165696    -0.74500
O4036       O  0.70318319  0.66396966  0.81311964    -0.53400
C4037       C  0.68001883  0.67742488  0.83898512     0.79300
O4038       O  0.67121165  0.81134872  0.67051821    -0.59100
O4039       O  0.69867475  0.85803650  0.70014787    -0.52100
C4040       C  0.67475045  0.84467161  0.67590692     0.71300
O4041       O  0.68195538  0.69814513  0.66711869    -0.73600
O4042       O  0.70616233  0.65645200  0.70510720    -0.54200
C4043       C  0.68624329  0.66578238  0.67529884     0.77300
O4044       O  0.67789660  0.82581681  0.82845931    -0.58800
O4045       O  0.70372695  0.86814491  0.79308142    -0.51900
C4046       C  0.68158446  0.85822784  0.81992981     0.73900
Zr4047     Zr  0.69694061  0.76506706  0.81107630     2.54700
O4048       O  0.63491940  0.76152387  0.80366351    -0.79300
O4049       O  0.70288570  0.77271686  0.88270884    -0.92800
Zr4050     Zr  0.69708888  0.75693451  0.69519299     2.64700
O4051       O  0.63589596  0.75641731  0.71042087    -0.97700
O4052       O  0.70101213  0.75837588  0.62321356    -0.79800
O4053       O  0.69722681  0.72506520  0.75495086    -0.83100
O4054       O  0.69829174  0.79665910  0.75119904    -2.17800
O4055       O  0.81127619  0.82450936  0.83772481    -0.66500
O4056       O  0.78696436  0.86641962  0.80023433    -0.51100
C4057       C  0.80687022  0.85692344  0.82987129     0.72300
O4058       O  0.81707089  0.69601326  0.67872052    -0.59400
O4059       O  0.79055567  0.65375476  0.71353848    -0.51400
C4060       C  0.81317463  0.66359951  0.68726840     0.74100
O4061       O  0.81957822  0.81058158  0.66371496    -0.70800
O4062       O  0.79083501  0.85747572  0.69171111    -0.49500
C4063       C  0.81413216  0.84393648  0.66595555     0.75400
O4064       O  0.82252746  0.71028866  0.83519525    -0.66100
O4065       O  0.79564833  0.66371360  0.80465514    -0.53300
C4066       C  0.81944090  0.67693246  0.82914710     0.73800
Zr4067     Zr  0.79736285  0.76517592  0.81033144     2.77500
O4068       O  0.85807940  0.75934771  0.79351004    -0.96900
O4069       O  0.79916337  0.77049145  0.88244651    -0.77700
Zr4070     Zr  0.79738442  0.75681039  0.69485653     2.70100
O4071       O  0.85939719  0.76008966  0.70208338    -0.79000
O4072       O  0.79097185  0.74767094  0.62342054    -0.98100
Zr4073     Zr  0.74670744  0.68666913  0.75848774     2.21500
Zr4074     Zr  0.74725268  0.83544556  0.74705719     2.11100
O4075       O  0.79723785  0.79740416  0.75069291    -2.46700
O4076       O  0.79549116  0.72551013  0.75461827    -0.78800
O4077       O  0.74697734  0.80042900  0.80594653    -0.71000
O4078       O  0.74734170  0.72121745  0.69907261    -2.31900
O4079       O  0.74728567  0.72936691  0.81365166    -2.28100
O4080       O  0.74715685  0.79258517  0.69250548    -0.72700
H4081       H  0.67762743  0.81064684  0.75080555     0.79300
H4082       H  0.74780812  0.70546741  0.67601661     0.80400
H4083       H  0.81768442  0.81145094  0.74990439     0.82600
H4084       H  0.74755811  0.71761288  0.83839573     0.80200
H4085       H  0.71399337  0.73715725  0.61486480     0.43200
H4086       H  0.77786142  0.76814362  0.61498347     0.42200
H4087       H  0.86841155  0.75489730  0.67506437     0.41900
H4088       H  0.86361869  0.77882255  0.77652495     0.39800
H4089       H  0.82326815  0.76513139  0.88928860     0.43000
H4090       H  0.68073918  0.78297840  0.89186912     0.37700
H4091       H  0.62581570  0.76679665  0.83064384     0.43900
H4092       H  0.63103212  0.77852082  0.72538672     0.40300
H4093       H  0.87049630  0.76425795  0.81863513     0.45200
H4094       H  0.71971191  0.79173093  0.88654353     0.43900
H4095       H  0.62449822  0.75913222  0.68458247     0.44000
H4096       H  0.81435427  0.75083288  0.61257829     0.44400
loop_ 
_geom_bond_atom_site_label_1 
_geom_bond_atom_site_label_2 
_geom_bond_distance 
_geom_bond_site_symmetry_2 
_ccdc_geom_bond_type 
C1            C3   1.585       .  S
C1            C5   1.520       .  S
C1            C4   1.530       .  S
C1          C459   1.623       .  S
C2            C6   1.527       .  S
C2            C8   1.521       .  S
C2            C7   1.565       .  S
C2          C391   1.629       .  S
C3           C11   1.395       .  A
C3            C6   1.443       .  A
C4           C15   1.386       .  A
C4            C7   1.447       .  A
C5           C19   1.353       .  A
C5            C8   1.403       .  A
C6            C9   1.340       .  A
C7           C13   1.336       .  A
C8           C16   1.353       .  A
C9           N10   1.327       .  A
C9           H22   1.067       .  S
N10          C11   1.373       .  A
N10         C283   1.463       .  S
C11          H12   1.076       .  S
C13          N14   1.347       .  A
C13          H23   1.083       .  S
N14          C15   1.346       .  A
N14         C101   1.442       .  S
C15          H21   1.079       .  S
C16          N17   1.347       .  A
C16          H18   1.071       .  S
N17          C19   1.339       .  A
N17          C44   1.396       .  S
C19          H20   1.071       .  S
N24          C29   1.329       .  A
N24        C2076   1.333       .  A
N24          H56   1.041       .  S
N25          C32   1.327       .  A
N25          C33   1.324       .  A
N26          C31   1.346       .  A
N26        C2078   1.346       .  A
N26          H57   1.045       .  S
N27          C34   1.329       .  A
N27          C35   1.337       .  A
C28          C36   1.383       .  A
C28          C44   1.384       .  A
C28        N2072   1.330   1_455  A
C29          C45   1.379       .  A
C29          C37   1.387       .  A
C30          C38   1.385       .  A
C30          C47   1.400       .  A
C30        N2074   1.346   1_455  A
C31          C46   1.404       .  A
C31          C39   1.387       .  A
C32          C44   1.399       .  A
C32          C40   1.390       .  A
C33          C47   1.371       .  A
C33          C41   1.382       .  A
C34          C42   1.390       .  A
C34          C45   1.402       .  A
C35          C43   1.381       .  A
C35          C46   1.376       .  A
C36        C2085   1.378   1_455  A
C36          H48   1.078       .  S
C37        C2084   1.379       .  A
C37          H49   1.083       .  S
C38        C2087   1.357   1_455  A
C38          H50   1.081       .  S
C39        C2086   1.356       .  A
C39          H51   1.080       .  S
C40          C41   1.378       .  A
C40          H52   1.080       .  S
C41          H53   1.082       .  S
C42          C43   1.373       .  A
C42          H54   1.077       .  S
C43          H55   1.083       .  S
C45         N329   1.394       .  S
C46          N67   1.427       .  S
C47         N375   1.416       .  S
C58          C60   1.504       .  S
C58          C62   1.563       .  S
C58          C61   1.520       .  S
C58         C394   1.685       .  S
C59          C63   1.566       .  S
C59          C65   1.549       .  S
C59          C64   1.538       .  S
C59         C479   1.673       .  S
C60          C68   1.356       .  A
C60          C63   1.433       .  A
C61          C72   1.341       .  A
C61          C64   1.437       .  A
C62          C76   1.316       .  A
C62          C65   1.453       .  A
C63          C66   1.374       .  A
C64          C70   1.359       .  A
C65          C73   1.371       .  A
C66          N67   1.363       .  A
C66          H79   1.079       .  S
N67          C68   1.341       .  A
C68          H69   1.084       .  S
C70          N71   1.353       .  A
C70          H80   1.073       .  S
N71          C72   1.328       .  A
N71         C135   1.420       .  S
C72          H78   1.082       .  S
C73          N74   1.357       .  A
C73          H75   1.064       .  S
N74          C76   1.341       .  A
N74         C249   1.471       .  S
C76          H77   1.026       .  S
N81          C85   1.331       .  A
N81        C1110   1.334   1_545  A
N81         H113   1.046       .  S
N82          C89   1.343       .  A
N82          C90   1.332       .  A
N83          C87   1.348       .  A
N83        C1112   1.340   1_545  A
N83         H114   1.045       .  S
N84          C91   1.330       .  A
N84          C92   1.336       .  A
C85          C93   1.375       .  A
C85         C101   1.384       .  A
C86         C102   1.379       .  A
C86          C94   1.369       .  A
C86        N1105   1.335       .  A
C87          C95   1.362       .  A
C87         C104   1.397       .  A
C88         C103   1.417       .  A
C88          C96   1.387       .  A
C88        N1107   1.341       .  A
C89         C101   1.426       .  A
C89          C97   1.387       .  A
C90         C104   1.423       .  A
C90          C98   1.378       .  A
C91          C99   1.374       .  A
C91         C102   1.420       .  A
C92         C100   1.385       .  A
C92         C103   1.428       .  A
C93        C1118   1.372       .  A
C93         H105   1.077       .  S
C94        C1117   1.374       .  A
C94         H106   1.072       .  S
C95        C1120   1.371       .  A
C95         H107   1.072       .  S
C96        C1119   1.370       .  A
C96         H108   1.069       .  S
C97          C98   1.385       .  A
C97         H109   1.071       .  S
C98         H110   1.083       .  S
C99         C100   1.381       .  A
C99         H111   1.077       .  S
C100        H112   1.059       .  S
C102        N379   1.435       .  S
C103        N162   1.454       .  S
C104        N356   1.425       .  S
N115        C120   1.340   1_565  A
N115       C1143   1.346       .  A
N115        H147   1.045       .  S
N116        C123   1.333       .  A
N116        C124   1.342       .  A
N117        C122   1.333       .  A
N117       C1145   1.331   1_545  A
N117        H148   1.046       .  S
N118        C125   1.336       .  A
N118        C126   1.331       .  A
C119        C127   1.359       .  A
C119        C135   1.392       .  A
C119       N1139   1.349       .  A
C120        C136   1.415       .  A
C120        C128   1.387       .  A
C121        C129   1.376       .  A
C121        C138   1.383       .  A
C121       N1141   1.330       .  A
C122        C137   1.380       .  A
C122        C130   1.373       .  A
C123        C135   1.422       .  A
C123        C131   1.377       .  A
C124        C138   1.424       .  A
C124        C132   1.389       .  A
C125        C133   1.384       .  A
C125        C136   1.427       .  A
C126        C134   1.373       .  A
C126        C137   1.420       .  A
C127       C1152   1.367       .  A
C127        H139   1.072       .  S
C128       C1151   1.368   1_545  A
C128        H140   1.067       .  S
C129       C1154   1.376       .  A
C129        H141   1.078       .  S
C130       C1153   1.378   1_545  A
C130        H142   1.076       .  S
C131        C132   1.382       .  A
C131        H143   1.083       .  S
C132        H144   1.072       .  S
C133        C134   1.380       .  A
C133        H145   1.058       .  S
C134        H146   1.076       .  S
C136        N333   1.453       .  S
C137        N222   1.439       .  S
C138        N310   1.442       .  S
C149        C151   1.538       .  S
C149        C153   1.521       .  S
C149        C152   1.553       .  S
C149        C414   1.621       .  S
C150        C154   1.510       .  S
C150        C156   1.539       .  S
C150        C155   1.562       .  S
C150        C462   1.606       .  S
C151        C159   1.355       .  A
C151        C154   1.415       .  A
C152        C163   1.356       .  A
C152        C155   1.450       .  A
C153        C167   1.326       .  A
C153        C156   1.429       .  A
C154        C157   1.350       .  A
C155        C161   1.400       .  A
C156        C164   1.369       .  A
C157        N158   1.333       .  A
C157        H170   1.078       .  S
N158        C159   1.353       .  A
N158        C195   1.392       .  S
C159        H160   1.078       .  S
C161        N162   1.360       .  A
C161        H171   1.072       .  S
N162        C163   1.335       .  A
C163        H169   1.084       .  S
C164        N165   1.348       .  A
C164        H166   1.078       .  S
N165        C167   1.336       .  A
N165        C251   1.427       .  S
C167        H168   1.074       .  S
N172        C177   1.343       .  A
N172       C2224   1.343       .  A
N172        H204   1.045       .  S
N173        C180   1.336       .  A
N173        C181   1.328       .  A
N174        C179   1.334       .  A
N174       C2226   1.333       .  A
N174        H205   1.042       .  S
N175        C182   1.323       .  A
N175        C183   1.326       .  A
C176        C184   1.389       .  A
C176        C192   1.404       .  A
C176       N2220   1.345       .  A
C177        C193   1.397       .  A
C177        C185   1.386       .  A
C178        C186   1.387       .  A
C178        C195   1.380       .  A
C178       N2222   1.330   1_455  A
C179        C194   1.387       .  A
C179        C187   1.382       .  A
C180        C192   1.375       .  A
C180        C188   1.382       .  A
C181        C195   1.400       .  A
C181        C189   1.390       .  A
C182        C190   1.383       .  A
C182        C193   1.368       .  A
C183        C191   1.389       .  A
C183        C194   1.395       .  A
C184       C2233   1.357   1_455  A
C184        H196   1.080       .  S
C185       C2232   1.357       .  A
C185        H197   1.082       .  S
C186       C2235   1.378   1_455  A
C186        H198   1.083       .  S
C187       C2234   1.378       .  A
C187        H199   1.078       .  S
C188        C189   1.374       .  A
C188        H200   1.083       .  S
C189        H201   1.079       .  S
C190        C191   1.377       .  A
C190        H202   1.083       .  S
C191        H203   1.080       .  S
C192        N359   1.424       .  S
C193        N215   1.411       .  S
C194        N306   1.398       .  S
C206        C208   1.549       .  S
C206        C210   1.552       .  S
C206        C209   1.509       .  S
C206        C482   1.640       .  S
C207        C211   1.514       .  S
C207        C213   1.533       .  S
C207        C212   1.587       .  S
C207        C411   1.697       .  S
C208        C216   1.380       .  A
C208        C211   1.442       .  A
C209        C220   1.370       .  A
C209        C212   1.450       .  A
C210        C224   1.370       .  A
C210        C213   1.443       .  A
C211        C214   1.349       .  A
C212        C218   1.329       .  A
C213        C221   1.345       .  A
C214        N215   1.323       .  A
C214        H227   1.082       .  S
N215        C216   1.352       .  A
C216        H217   1.079       .  S
C218        N219   1.361       .  A
C218        H228   1.056       .  S
N219        C220   1.327       .  A
N219        C285   1.456       .  S
C220        H226   1.075       .  S
C221        N222   1.328       .  A
C221        H223   1.084       .  S
N222        C224   1.356       .  A
C224        H225   1.067       .  S
N229        C233   1.350       .  A
N229        C746   1.342   1_554  A
N229        H261   1.017       .  S
N230        C237   1.327       .  A
N230        C238   1.340       .  A
N231        C235   1.333       .  A
N231        C748   1.317   1_554  A
N231        H262   1.048       .  S
N232        C239   1.312       .  A
N232        C240   1.331       .  A
C233        C241   1.375       .  A
C233        C249   1.410       .  A
C234        C250   1.429       .  A
C234        C242   1.371       .  A
C234        N741   1.341       .  A
C235        C243   1.371       .  A
C235        C252   1.353       .  A
C236        C251   1.363       .  A
C236        C244   1.360       .  A
C236        N743   1.316       .  A
C237        C249   1.413       .  A
C237        C245   1.389       .  A
C238        C252   1.416       .  A
C238        C246   1.379       .  A
C239        C247   1.390       .  A
C239        C250   1.394       .  A
C240        C248   1.377       .  A
C240        C251   1.393       .  A
C241        C754   1.392       .  A
C241        H253   1.082       .  S
C242        C753   1.391       .  A
C242        H254   1.064       .  S
C243        C756   1.368       .  A
C243        H255   1.082       .  S
C244        C755   1.370       .  A
C244        H256   1.069       .  S
C245        C246   1.389       .  A
C245        H257   1.082       .  S
C246        H258   1.078       .  S
C247        C248   1.380       .  A
C247        H259   1.070       .  S
C248        H260   1.080       .  S
C250        N313   1.464       .  S
C252        N382   1.456       .  S
N263        C267   1.342   1_556  A
N263        C780   1.352       .  A
N263        H295   1.013       .  S
N264        C271   1.312       .  A
N264        C272   1.332       .  A
N265        C269   1.317   1_556  A
N265        C782   1.333       .  A
N265        H296   1.048       .  S
N266        C273   1.327       .  A
N266        C274   1.340       .  A
C267        C275   1.373   1_554  A
C267        C283   1.428       .  A
C268        C284   1.408       .  A
C268        C276   1.374       .  A
C268        N775   1.352       .  A
C269        C277   1.357   1_554  A
C269        C286   1.358       .  A
C270        C285   1.355       .  A
C270        C278   1.372       .  A
C270        N777   1.333       .  A
C271        C283   1.396       .  A
C271        C279   1.391       .  A
C272        C286   1.394       .  A
C272        C280   1.377       .  A
C273        C281   1.388       .  A
C273        C284   1.415       .  A
C274        C282   1.380       .  A
C274        C285   1.418       .  A
C275        C788   1.390       .  A
C275        H287   1.066   1_556  S
C276        C787   1.391       .  A
C276        H288   1.082       .  S
C277        C790   1.368       .  A
C277        H289   1.070   1_556  S
C278        C789   1.369       .  A
C278        H290   1.082       .  S
C279        C280   1.382       .  A
C279        H291   1.071       .  S
C280        H292   1.080       .  S
C281        C282   1.389       .  A
C281        H293   1.083       .  S
C282        H294   1.077       .  S
C284        N352   1.471       .  S
C286        N336   1.425       .  S
C297        C299   1.521       .  S
C297        C301   1.585       .  S
C297        C300   1.529       .  S
C297        C473   1.621       .  S
C298        C302   1.519       .  S
C298        C304   1.529       .  S
C298        C303   1.565       .  S
C298        C417   1.625       .  S
C299        C307   1.355       .  A
C299        C302   1.400       .  A
C300        C311   1.383       .  A
C300        C303   1.446       .  A
C301        C315   1.397       .  A
C301        C304   1.443       .  A
C302        C305   1.357       .  A
C303        C309   1.337       .  A
C304        C312   1.340       .  A
C305        N306   1.348       .  A
C305        H318   1.072       .  S
N306        C307   1.339       .  A
C307        H308   1.069       .  S
C309        N310   1.347       .  A
C309        H319   1.083       .  S
N310        C311   1.346       .  A
C311        H317   1.079       .  S
C312        N313   1.327       .  A
C312        H314   1.067       .  S
N313        C315   1.373       .  A
C315        H316   1.075       .  S
C320        C322   1.510       .  S
C320        C324   1.532       .  S
C320        C323   1.563       .  S
C320        C476   1.601       .  S
C321        C325   1.542       .  S
C321        C327   1.521       .  S
C321        C326   1.551       .  S
C321        C400   1.621       .  S
C322        C330   1.353       .  A
C322        C325   1.415       .  A
C323        C334   1.399       .  A
C323        C326   1.451       .  A
C324        C338   1.368       .  A
C324        C327   1.426       .  A
C325        C328   1.356       .  A
C326        C332   1.357       .  A
C327        C335   1.327       .  A
C328        N329   1.354       .  A
C328        H341   1.078       .  S
N329        C330   1.334       .  A
C330        H331   1.079       .  S
C332        N333   1.335       .  A
C332        H342   1.084       .  S
N333        C334   1.359       .  A
C334        H340   1.072       .  S
C335        N336   1.338       .  A
C335        H337   1.074       .  S
N336        C338   1.345       .  A
C338        H339   1.079       .  S
C343        C345   1.570       .  S
C343        C347   1.501       .  S
C343        C346   1.522       .  S
C343        C420   1.682       .  S
C344        C348   1.539       .  S
C344        C350   1.562       .  S
C344        C349   1.544       .  S
C344        C453   1.668       .  S
C345        C353   1.319       .  A
C345        C348   1.448       .  A
C346        C357   1.344       .  A
C346        C349   1.439       .  A
C347        C361   1.355       .  A
C347        C350   1.433       .  A
C348        C351   1.368       .  A
C349        C355   1.364       .  A
C350        C358   1.372       .  A
C351        N352   1.355       .  A
C351        H364   1.065       .  S
N352        C353   1.344       .  A
C353        H354   1.027       .  S
C355        N356   1.355       .  A
C355        H365   1.072       .  S
N356        C357   1.328       .  A
C357        H363   1.083       .  S
C358        N359   1.362       .  A
C358        H360   1.078       .  S
N359        C361   1.338       .  A
C361        H362   1.084       .  S
C366        C368   1.554       .  S
C366        C370   1.507       .  S
C366        C369   1.549       .  S
C366        C456   1.639       .  S
C367        C371   1.516       .  S
C367        C373   1.586       .  S
C367        C372   1.534       .  S
C367        C397   1.701       .  S
C368        C376   1.383       .  A
C368        C371   1.442       .  A
C369        C380   1.368       .  A
C369        C372   1.444       .  A
C370        C384   1.371       .  A
C370        C373   1.450       .  A
C371        C374   1.350       .  A
C372        C378   1.344       .  A
C373        C381   1.326       .  A
C374        N375   1.324       .  A
C374        H387   1.081       .  S
N375        C376   1.354       .  A
C376        H377   1.078       .  S
C378        N379   1.329       .  A
C378        H388   1.084       .  S
N379        C380   1.353       .  A
C380        H386   1.068       .  S
C381        N382   1.361       .  A
C381        H383   1.052       .  S
N382        C384   1.327       .  A
C384        H385   1.074       .  S
O389       Zr401   2.512   1_455  S
O389        C391   1.300       .  A
O390       Zr939   2.583       .  S
O390        C391   1.316       .  A
O392      Zr2452   2.567       .  S
O392        C394   1.313       .  A
O393      Zr1452   2.656       .  S
O393        C394   1.325       .  A
O395       Zr404   2.578   1_455  S
O395        C397   1.318       .  A
O396      Zr1963   2.645       .  S
O396        C397   1.327       .  A
O398      Zr2449   2.467       .  S
O398        C400   1.289       .  A
O399       Zr428   2.617       .  S
O399        C400   1.327       .  A
Zr401      O2446   2.475       .  S
Zr401       O402   2.415       .  S
Zr401       O403   2.434       .  S
Zr401       O407   2.410   1_655  S
Zr401      O2456   2.412       .  S
Zr401      O2479   2.377       .  S
Zr401       O945   2.374   1_655  S
O402        H445   0.990       .  S
O403        H444   0.990   1_655  S
O403        H448   0.986       .  S
Zr404      O2440   2.571       .  S
Zr404       O405   2.426       .  S
Zr404      O2454   2.435       .  S
Zr404      O3480   2.430       .  S
Zr404      O1431   2.427   1_655  S
Zr404       O944   2.383   1_654  S
Zr404      O2482   2.391   1_554  S
O405        H449   0.990       .  S
O405       H2494   0.988       .  S
O406      Zr2452   2.434       .  S
O406       H2487   0.989       .  S
O407      Zr1428   2.426   1_445  S
O407       Zr939   2.440       .  S
O408       Zr428   2.440       .  S
O408      Zr2449   2.415       .  S
O408      Zr3476   2.429   1_545  S
O408        H435   0.966       .  S
O409      Zr2469   2.576       .  S
O409        C411   1.318       .  A
O410       Zr940   2.634       .  S
O410        C411   1.323       .  A
O412       Zr424   2.476   1_455  S
O412        C414   1.290       .  A
O413      Zr1451   2.613       .  S
O413        C414   1.325       .  A
O415      Zr2472   2.509       .  S
O415        C417   1.299       .  A
O416      Zr1964   2.577       .  S
O416        C417   1.313       .  A
O418       Zr421   2.569   1_455  S
O418        C420   1.313       .  A
O419       Zr427   2.648       .  S
O419        C420   1.321       .  A
Zr421      O2457   2.573       .  S
Zr421       O422   2.436   1_655  S
Zr421       O423   2.436       .  S
Zr421       O430   2.429   1_655  S
Zr421       O433   2.392   1_655  S
Zr421      O2477   2.429       .  S
Zr421      O2991   2.381       .  S
O422       H2490   0.990   1_455  S
O422       H2495   0.990       .  S
O423       H2491   0.990       .  S
Zr424      O2463   2.510       .  S
Zr424       O426   2.433       .  S
Zr424      O2473   2.419   1_655  S
Zr424       O432   2.381   1_655  S
Zr424      O1454   2.410   1_655  S
Zr424      O3501   2.418       .  S
Zr424      O2994   2.370       .  S
O425      Zr2472   2.422       .  S
O425       H2489   0.991       .  S
O426       H2488   0.990       .  S
O426       H2498   0.987       .  S
Zr427       O902   2.589       .  S
Zr427      O1932   2.638   1_545  S
Zr427      O1437   2.615   1_545  S
Zr427       O430   2.439       .  S
Zr427       O433   2.426       .  S
Zr427       O919   2.439       .  S
Zr427      O1456   2.425   1_545  S
Zr428      O1417   2.648   1_545  S
Zr428       O922   2.633   1_554  S
Zr428      O1952   2.582   1_544  S
Zr428       O431   2.420       .  S
Zr428       O941   2.445   1_554  S
Zr428      O1458   2.417   1_544  S
O429      Zr2469   2.428       .  S
O429      Zr3496   2.419   1_545  S
O429       Zr940   2.446       .  S
O429        H437   0.966       .  S
O430      Zr1448   2.412   1_445  S
O431      Zr2449   2.379       .  S
O431      Zr2981   2.384   1_554  S
O432       Zr916   2.384   1_455  S
O432      Zr1451   2.425       .  S
O432        H436   0.966       .  S
O433       Zr913   2.374   1_455  S
O433        H438   0.964       .  S
O434      Zr2452   2.391   1_556  S
O434      Zr2984   2.369       .  S
O434      Zr1452   2.417   1_556  S
H439       O2454   0.989   1_455  S
H440       O2474   0.990       .  S
H441       O2473   0.991       .  S
H442       O2470   0.990       .  S
H443       O2471   0.990       .  S
H446       O2453   0.989       .  S
H447       O2470   0.988       .  S
H450       O2474   0.987       .  S
O451       Zr463   2.527       .  S
O451        C453   1.303       .  A
O452       Zr489   2.673       .  S
O452        C453   1.340       .  A
O454       Zr466   2.509       .  S
O454        C456   1.300       .  A
O455       Zr490   2.636       .  S
O455        C456   1.332       .  A
O457       Zr466   2.491       .  S
O457        C459   1.299       .  A
O458       Zr489   2.627       .  S
O458        C459   1.330       .  A
O460       Zr463   2.501       .  S
O460        C462   1.304       .  A
O461       Zr490   2.581       .  S
O461        C462   1.318       .  A
Zr463       O464   2.431       .  S
Zr463       O465   2.437       .  S
Zr463       O469   2.393       .  S
Zr463       O470   2.406       .  S
Zr463       O493   2.392       .  S
Zr463       O495   2.394       .  S
O464        H507   0.989       .  S
O465        H506   0.990       .  S
O465        H510   0.990       .  S
Zr466       O467   2.436       .  S
Zr466       O468   2.436       .  S
Zr466       O470   2.383       .  S
Zr466       O469   2.408       .  S
Zr466       O494   2.395       .  S
Zr466       O496   2.396       .  S
O467        H508   0.989       .  S
O467        H511   0.989       .  S
O468        H501   0.990       .  S
O469       Zr489   2.432       .  S
O470       Zr490   2.435       .  S
O470        H497   0.964       .  S
O471       Zr483   2.493       .  S
O471        C473   1.299       .  A
O472       Zr490   2.619       .  S
O472        C473   1.328       .  A
O474       Zr486   2.501       .  S
O474        C476   1.304       .  A
O475       Zr489   2.568       .  S
O475        C476   1.315       .  A
O477       Zr486   2.520       .  S
O477        C479   1.301       .  A
O478       Zr490   2.688       .  S
O478        C479   1.343       .  A
O480       Zr483   2.506       .  S
O480        C482   1.300       .  A
O481       Zr489   2.636       .  S
O481        C482   1.332       .  A
Zr483       O484   2.438       .  S
Zr483       O485   2.436       .  S
Zr483       O491   2.413       .  S
Zr483       O492   2.374       .  S
Zr483       O495   2.399       .  S
Zr483       O493   2.389       .  S
O484        H504   0.988       .  S
O484        H509   0.989       .  S
O485        H505   0.990       .  S
Zr486       O487   2.434       .  S
Zr486       O488   2.434       .  S
Zr486       O492   2.396       .  S
Zr486       O491   2.397       .  S
Zr486       O496   2.393       .  S
Zr486       O494   2.395       .  S
O487        H503   0.989       .  S
O488        H502   0.990       .  S
O488        H512   0.990       .  S
Zr489       O492   2.432       .  S
Zr489       O494   2.454       .  S
Zr489       O495   2.428       .  S
Zr490       O491   2.440       .  S
Zr490       O493   2.450       .  S
Zr490       O496   2.423       .  S
O491        H499   0.967       .  S
O494        H498   0.967       .  S
O495        H500   0.964       .  S
C513        C515   1.584       .  S
C513        C517   1.518       .  S
C513        C516   1.531       .  S
C513        C971   1.624       .  S
C514        C518   1.527       .  S
C514        C520   1.526       .  S
C514        C519   1.563       .  S
C514        C903   1.629       .  S
C515        C523   1.396       .  A
C515        C518   1.443       .  A
C516        C527   1.387       .  A
C516        C519   1.448       .  A
C517        C531   1.352       .  A
C517        C520   1.402       .  A
C518        C521   1.342       .  A
C519        C525   1.336       .  A
C520        C528   1.357       .  A
C521        N522   1.328       .  A
C521        H534   1.068       .  S
N522        C523   1.373       .  A
N522        C795   1.463       .  S
C523        H524   1.076       .  S
C525        N526   1.346       .  A
C525        H535   1.083       .  S
N526        C527   1.347       .  A
N526        C613   1.441       .  S
C527        H533   1.079       .  S
C528        N529   1.351       .  A
C528        H530   1.073       .  S
N529        C531   1.338       .  A
N529        C556   1.398       .  S
C531        H532   1.072       .  S
N536        C541   1.330       .  A
N536       C2588   1.333       .  A
N536        H568   1.042       .  S
N537        C544   1.326       .  A
N537        C545   1.323       .  A
N538        C543   1.346       .  A
N538       C2590   1.346       .  A
N538        H569   1.045       .  S
N539        C546   1.330       .  A
N539        C547   1.336       .  A
C540        C548   1.382       .  A
C540        C556   1.385       .  A
C540       N2584   1.333   1_455  A
C541        C557   1.380       .  A
C541        C549   1.386       .  A
C542        C550   1.386       .  A
C542        C559   1.404       .  A
C542       N2586   1.347   1_455  A
C543        C558   1.405       .  A
C543        C551   1.388       .  A
C544        C556   1.397       .  A
C544        C552   1.390       .  A
C545        C559   1.367       .  A
C545        C553   1.382       .  A
C546        C554   1.389       .  A
C546        C557   1.401       .  A
C547        C555   1.382       .  A
C547        C558   1.376       .  A
C548       C2597   1.378   1_455  A
C548        H560   1.078       .  S
C549       C2596   1.379       .  A
C549        H561   1.083       .  S
C550       C2599   1.355   1_455  A
C550        H562   1.081       .  S
C551       C2598   1.355       .  A
C551        H563   1.079       .  S
C552        C553   1.377       .  A
C552        H564   1.080       .  S
C553        H565   1.083       .  S
C554        C555   1.374       .  A
C554        H566   1.078       .  S
C555        H567   1.083       .  S
C557        N841   1.396       .  S
C558        N579   1.426       .  S
C559        N887   1.417       .  S
C570        C572   1.500       .  S
C570        C574   1.565       .  S
C570        C573   1.522       .  S
C570        C906   1.683       .  S
C571        C575   1.565       .  S
C571        C577   1.545       .  S
C571        C576   1.541       .  S
C571        C991   1.669       .  S
C572        C580   1.356       .  A
C572        C575   1.433       .  A
C573        C584   1.343       .  A
C573        C576   1.437       .  A
C574        C588   1.316       .  A
C574        C577   1.450       .  A
C575        C578   1.374       .  A
C576        C582   1.362       .  A
C577        C585   1.369       .  A
C578        N579   1.363       .  A
C578        H591   1.078       .  S
N579        C580   1.339       .  A
C580        H581   1.084       .  S
C582        N583   1.354       .  A
C582        H592   1.073       .  S
N583        C584   1.329       .  A
N583        C647   1.425       .  S
C584        H590   1.080       .  S
C585        N586   1.357       .  A
C585        H587   1.064       .  S
N586        C588   1.342       .  A
N586        C761   1.471       .  S
C588        H589   1.027       .  S
N593       C1622   1.334   1_545  A
N593        C597   1.332       .  A
N593        H625   1.046       .  S
N594        C601   1.343       .  A
N594        C602   1.333       .  A
N595       C1624   1.339   1_545  A
N595        C599   1.346       .  A
N595        H626   1.045       .  S
N596        C603   1.330       .  A
N596        C604   1.337       .  A
C597        C605   1.373       .  A
C597        C613   1.383       .  A
C598        C614   1.376       .  A
C598        C606   1.367       .  A
C598       N1617   1.335       .  A
C599        C607   1.363       .  A
C599        C616   1.396       .  A
C600        C615   1.416       .  A
C600        C608   1.390       .  A
C600       N1619   1.339       .  A
C601        C613   1.425       .  A
C601        C609   1.387       .  A
C602        C616   1.422       .  A
C602        C610   1.377       .  A
C603        C611   1.373       .  A
C603        C614   1.421       .  A
C604        C612   1.387       .  A
C604        C615   1.428       .  A
C605       C1630   1.373       .  A
C605        H617   1.077       .  S
C606       C1629   1.374       .  A
C606        H618   1.072       .  S
C607       C1632   1.372       .  A
C607        H619   1.071       .  S
C608       C1631   1.371       .  A
C608        H620   1.072       .  S
C609        C610   1.384       .  A
C609        H621   1.070       .  S
C610        H622   1.083       .  S
C611        C612   1.379       .  A
C611        H623   1.078       .  S
C612        H624   1.059       .  S
C614        N891   1.431       .  S
C615        N674   1.454       .  S
C616        N868   1.427       .  S
N627        C632   1.340   1_565  A
N627       C1655   1.347       .  A
N627        H659   1.045       .  S
N628        C635   1.334       .  A
N628        C636   1.342       .  A
N629        C634   1.334       .  A
N629       C1657   1.331   1_545  A
N629        H660   1.046       .  S
N630        C637   1.334       .  A
N630        C638   1.331       .  A
C631        C639   1.363       .  A
C631        C647   1.393       .  A
C631       N1651   1.347       .  A
C632        C648   1.416       .  A
C632        C640   1.387       .  A
C633        C641   1.375       .  A
C633        C650   1.383       .  A
C633       N1653   1.329       .  A
C634        C649   1.378       .  A
C634        C642   1.371       .  A
C635        C647   1.422       .  A
C635        C643   1.377       .  A
C636        C650   1.422       .  A
C636        C644   1.388       .  A
C637        C645   1.385       .  A
C637        C648   1.427       .  A
C638        C646   1.373       .  A
C638        C649   1.420       .  A
C639       C1664   1.370       .  A
C639        H651   1.073       .  S
C640       C1663   1.371   1_545  A
C640        H652   1.069       .  S
C641       C1666   1.377       .  A
C641        H653   1.075       .  S
C642       C1665   1.374   1_545  A
C642        H654   1.074       .  S
C643        C644   1.381       .  A
C643        H655   1.083       .  S
C644        H656   1.071       .  S
C645        C646   1.380       .  A
C645        H657   1.058       .  S
C646        H658   1.077       .  S
C648        N845   1.452       .  S
C649        N734   1.437       .  S
C650        N822   1.442       .  S
C661        C663   1.538       .  S
C661        C665   1.524       .  S
C661        C664   1.553       .  S
C661        C926   1.622       .  S
C662        C666   1.509       .  S
C662        C668   1.535       .  S
C662        C667   1.561       .  S
C662        C974   1.603       .  S
C663        C671   1.357       .  A
C663        C666   1.413       .  A
C664        C675   1.356       .  A
C664        C667   1.449       .  A
C665        C679   1.326       .  A
C665        C668   1.430       .  A
C666        C669   1.352       .  A
C667        C673   1.398       .  A
C668        C676   1.369       .  A
C669        N670   1.335       .  A
C669        H682   1.078       .  S
N670        C671   1.353       .  A
N670        C707   1.394       .  S
C671        H672   1.079       .  S
C673        N674   1.360       .  A
C673        H683   1.073       .  S
N674        C675   1.335       .  A
C675        H681   1.084       .  S
C676        N677   1.346       .  A
C676        H678   1.078       .  S
N677        C679   1.338       .  A
N677        C763   1.427       .  S
C679        H680   1.073       .  S
N684        C689   1.344       .  A
N684       C2736   1.344       .  A
N684        H716   1.046       .  S
N685        C692   1.337       .  A
N685        C693   1.329       .  A
N686        C691   1.334       .  A
N686       C2738   1.329       .  A
N686        H717   1.042       .  S
N687        C694   1.321       .  A
N687        C695   1.326       .  A
C688        C696   1.387       .  A
C688        C704   1.401       .  A
C688       N2732   1.346       .  A
C689        C705   1.398       .  A
C689        C697   1.386       .  A
C690        C698   1.386       .  A
C690        C707   1.381       .  A
C690       N2734   1.331   1_455  A
C691        C706   1.385       .  A
C691        C699   1.381       .  A
C692        C704   1.372       .  A
C692        C700   1.379       .  A
C693        C707   1.400       .  A
C693        C701   1.390       .  A
C694        C702   1.381       .  A
C694        C705   1.363       .  A
C695        C703   1.389       .  A
C695        C706   1.394       .  A
C696       C2745   1.355   1_455  A
C696        H708   1.080       .  S
C697       C2744   1.356       .  A
C697        H709   1.082       .  S
C698       C2747   1.377   1_455  A
C698        H710   1.083       .  S
C699       C2746   1.379       .  A
C699        H711   1.079       .  S
C700        C701   1.372       .  A
C700        H712   1.082       .  S
C701        H713   1.078       .  S
C702        C703   1.378       .  A
C702        H714   1.082       .  S
C703        H715   1.080       .  S
C704        N871   1.425       .  S
C705        N727   1.411       .  S
C706        N818   1.400       .  S
C718        C720   1.553       .  S
C718        C722   1.551       .  S
C718        C721   1.505       .  S
C718        C994   1.640       .  S
C719        C723   1.513       .  S
C719        C725   1.535       .  S
C719        C724   1.585       .  S
C719        C923   1.697       .  S
C720        C728   1.380       .  A
C720        C723   1.444       .  A
C721        C732   1.369       .  A
C721        C724   1.447       .  A
C722        C736   1.370       .  A
C722        C725   1.446       .  A
C723        C726   1.347       .  A
C724        C730   1.326       .  A
C725        C733   1.347       .  A
C726        N727   1.321       .  A
C726        H739   1.082       .  S
N727        C728   1.354       .  A
C728        H729   1.080       .  S
C730        N731   1.362       .  A
C730        H740   1.057       .  S
N731        C732   1.325       .  A
N731        C797   1.454       .  S
C732        H738   1.075       .  S
C733        N734   1.329       .  A
C733        H735   1.084       .  S
N734        C736   1.354       .  A
C736        H737   1.068       .  S
N741        C745   1.350       .  A
N741        H773   1.021       .  S
N742        C749   1.326       .  A
N742        C750   1.340       .  A
N743        C747   1.333       .  A
N743        H774   1.048       .  S
N744        C751   1.312       .  A
N744        C752   1.332       .  A
C745        C753   1.373       .  A
C745        C761   1.408       .  A
C746        C762   1.429       .  A
C746        C754   1.374   1_556  A
C747        C755   1.371       .  A
C747        C764   1.355       .  A
C748        C763   1.361       .  A
C748        C756   1.359   1_556  A
C749        C761   1.412       .  A
C749        C757   1.388       .  A
C750        C764   1.415       .  A
C750        C758   1.379       .  A
C751        C759   1.391       .  A
C751        C762   1.396       .  A
C752        C760   1.377       .  A
C752        C763   1.394       .  A
C753        H765   1.082       .  S
C754        H766   1.065   1_554  S
C755        H767   1.082       .  S
C756        H768   1.069   1_554  S
C757        C758   1.389       .  A
C757        H769   1.083       .  S
C758        H770   1.078       .  S
C759        C760   1.381       .  A
C759        H771   1.069       .  S
C760        H772   1.079       .  S
C762        N825   1.463       .  S
C764        N894   1.456       .  S
N775        C779   1.343       .  A
N775        H807   1.009       .  S
N776        C783   1.313       .  A
N776        C784   1.333       .  A
N777        C781   1.317       .  A
N777        H808   1.048       .  S
N778        C785   1.327       .  A
N778        C786   1.340       .  A
C779        C787   1.370       .  A
C779        C795   1.428       .  A
C780        C796   1.408       .  A
C780        C788   1.374       .  A
C781        C789   1.358       .  A
C781        C798   1.363       .  A
C782        C797   1.353       .  A
C782        C790   1.372       .  A
C783        C795   1.395       .  A
C783        C791   1.390       .  A
C784        C798   1.395       .  A
C784        C792   1.377       .  A
C785        C793   1.388       .  A
C785        C796   1.415       .  A
C786        C794   1.380       .  A
C786        C797   1.419       .  A
C787        H799   1.067       .  S
C788        H800   1.082       .  S
C789        H801   1.069       .  S
C790        H802   1.082       .  S
C791        C792   1.380       .  A
C791        H803   1.071       .  S
C792        H804   1.080       .  S
C793        C794   1.390       .  A
C793        H805   1.083       .  S
C794        H806   1.077       .  S
C796        N864   1.471       .  S
C798        N848   1.427       .  S
C809        C811   1.520       .  S
C809        C813   1.584       .  S
C809        C812   1.535       .  S
C809        C985   1.629       .  S
C810        C814   1.523       .  S
C810        C816   1.529       .  S
C810        C815   1.562       .  S
C810        C929   1.625       .  S
C811        C819   1.353       .  A
C811        C814   1.402       .  A
C812        C823   1.384       .  A
C812        C815   1.446       .  A
C813        C827   1.395       .  A
C813        C816   1.444       .  A
C814        C817   1.361       .  A
C815        C821   1.338       .  A
C816        C824   1.341       .  A
C817        N818   1.351       .  A
C817        H830   1.077       .  S
N818        C819   1.339       .  A
C819        H820   1.069       .  S
C821        N822   1.346       .  A
C821        H831   1.083       .  S
N822        C823   1.348       .  A
C823        H829   1.079       .  S
C824        N825   1.328       .  A
C824        H826   1.066       .  S
N825        C827   1.373       .  A
C827        H828   1.075       .  S
C832        C834   1.511       .  S
C832        C836   1.537       .  S
C832        C835   1.564       .  S
C832        C988   1.606       .  S
C833        C837   1.542       .  S
C833        C839   1.520       .  S
C833        C838   1.552       .  S
C833        C912   1.625       .  S
C834        C842   1.354       .  A
C834        C837   1.414       .  A
C835        C846   1.399       .  A
C835        C838   1.450       .  A
C836        C850   1.371       .  A
C836        C839   1.429       .  A
C837        C840   1.357       .  A
C838        C844   1.356       .  A
C839        C847   1.327       .  A
C840        N841   1.354       .  A
C840        H853   1.076       .  S
N841        C842   1.334       .  A
C842        H843   1.079       .  S
C844        N845   1.334       .  A
C844        H854   1.084       .  S
N845        C846   1.360       .  A
C846        H852   1.071       .  S
C847        N848   1.337       .  A
C847        H849   1.073       .  S
N848        C850   1.347       .  A
C850        H851   1.078       .  S
C855        C857   1.566       .  S
C855        C859   1.504       .  S
C855        C858   1.524       .  S
C855        C932   1.683       .  S
C856        C860   1.544       .  S
C856        C862   1.563       .  S
C856        C861   1.544       .  S
C856        C965   1.670       .  S
C857        C865   1.319       .  A
C857        C860   1.449       .  A
C858        C869   1.343       .  A
C858        C861   1.439       .  A
C859        C873   1.355       .  A
C859        C862   1.432       .  A
C860        C863   1.369       .  A
C861        C867   1.365       .  A
C862        C870   1.374       .  A
C863        N864   1.356       .  A
C863        H876   1.064       .  S
N864        C865   1.343       .  A
C865        H866   1.028       .  S
C867        N868   1.356       .  A
C867        H877   1.072       .  S
N868        C869   1.328       .  A
C869        H875   1.082       .  S
C870        N871   1.362       .  A
C870        H872   1.079       .  S
N871        C873   1.339       .  A
C873        H874   1.084       .  S
C878        C880   1.558       .  S
C878        C882   1.507       .  S
C878        C881   1.547       .  S
C878        C968   1.639       .  S
C879        C883   1.510       .  S
C879        C885   1.589       .  S
C879        C884   1.531       .  S
C879        C909   1.699       .  S
C880        C888   1.384       .  A
C880        C883   1.442       .  A
C881        C892   1.365       .  A
C881        C884   1.443       .  A
C882        C896   1.370       .  A
C882        C885   1.450       .  A
C883        C886   1.350       .  A
C884        C890   1.345       .  A
C885        C893   1.327       .  A
C886        N887   1.322       .  A
C886        H899   1.082       .  S
N887        C888   1.356       .  A
C888        H889   1.078       .  S
C890        N891   1.329       .  A
C890        H900   1.084       .  S
N891        C892   1.352       .  A
C892        H898   1.069       .  S
C893        N894   1.361       .  A
C893        H895   1.055       .  S
N894        C896   1.328       .  A
C896        H897   1.074       .  S
O901       Zr913   2.508   1_455  S
O901        C903   1.299       .  A
O902        C903   1.318       .  A
O904      Zr2964   2.564       .  S
O904        C906   1.312       .  A
O905      Zr1964   2.652       .  S
O905        C906   1.323       .  A
O907       Zr916   2.579   1_455  S
O907        C909   1.319       .  A
O908      Zr1451   2.639       .  S
O908        C909   1.325       .  A
O910      Zr2961   2.469       .  S
O910        C912   1.289       .  A
O911       Zr940   2.623       .  S
O911        C912   1.328       .  A
Zr913      O2958   2.469       .  S
Zr913       O914   2.419       .  S
Zr913       O915   2.434       .  S
Zr913       O919   2.411   1_655  S
Zr913      O2968   2.414       .  S
Zr913      O2991   2.376       .  S
O914        H957   0.990       .  S
O915        H956   0.990   1_655  S
O915        H960   0.986       .  S
Zr916      O2952   2.571       .  S
Zr916       O917   2.428       .  S
Zr916      O2966   2.435       .  S
Zr916      O3992   2.429       .  S
Zr916      O1943   2.429   1_655  S
Zr916      O2994   2.387       .  S
O917       H3006   0.989       .  S
O917        H961   0.990       .  S
O918      Zr2964   2.434       .  S
O918       H2999   0.989       .  S
O919      Zr1940   2.427   1_445  S
O920      Zr2961   2.409       .  S
O920      Zr3988   2.431   1_545  S
O920       Zr940   2.438       .  S
O920        H947   0.965       .  S
O921      Zr2981   2.574       .  S
O921        C923   1.317       .  A
O922        C923   1.324       .  A
O924       Zr936   2.482   1_455  S
O924        C926   1.292       .  A
O925      Zr1963   2.611   1_556  S
O925        C926   1.325       .  A
O927      Zr2984   2.507       .  S
O927        C929   1.299       .  A
O928      Zr1452   2.577   1_556  S
O928        C929   1.314       .  A
O930       Zr933   2.571   1_455  S
O930        C932   1.314       .  A
O931       Zr939   2.649   1_556  S
O931        C932   1.323       .  A
Zr933      O2969   2.578       .  S
Zr933       O934   2.426   1_655  S
Zr933       O935   2.435       .  S
Zr933      O2989   2.430       .  S
Zr933       O942   2.428   1_655  S
Zr933       O945   2.393   1_656  S
Zr933      O2479   2.381   1_556  S
O934       H3002   0.990       .  S
O934       H3007   0.989       .  S
O935       H3003   0.990       .  S
Zr936      O2975   2.512       .  S
Zr936      O2985   2.420   1_655  S
Zr936       O938   2.436       .  S
Zr936      O1966   2.410   1_655  S
Zr936      O4013   2.418       .  S
Zr936      O2482   2.372       .  S
Zr936       O944   2.381   1_655  S
O937      Zr2984   2.424       .  S
O937       H3001   0.991       .  S
O938       H3000   0.990       .  S
O938       H3010   0.988       .  S
Zr939      O1420   2.635   1_545  S
Zr939      O1949   2.610   1_544  S
Zr939       O942   2.436   1_554  S
Zr939      O1968   2.427   1_544  S
Zr939       O945   2.428       .  S
Zr940      O1929   2.640   1_545  S
Zr940      O1440   2.582   1_545  S
Zr940       O943   2.411       .  S
Zr940      O1970   2.424   1_545  S
O941      Zr2981   2.425       .  S
O941      Zr4008   2.418   1_545  S
O941        H949   0.965       .  S
O942      Zr1960   2.411   1_445  S
O943      Zr2961   2.377       .  S
O943      Zr2469   2.380       .  S
O944      Zr1963   2.422   1_556  S
O944        H948   0.966       .  S
O945        H950   0.964       .  S
O946      Zr2964   2.391       .  S
O946      Zr2472   2.372       .  S
O946      Zr1964   2.423       .  S
H951       O2966   0.989   1_455  S
H952       O2986   0.990       .  S
H953       O2985   0.991       .  S
H954       O2982   0.990       .  S
H955       O2983   0.990       .  S
H958       O2965   0.988       .  S
H959       O2982   0.990       .  S
H962       O2986   0.988       .  S
O963       Zr975   2.523       .  S
O963        C965   1.302       .  A
O964      Zr1001   2.679       .  S
O964        C965   1.341       .  A
O966       Zr978   2.504       .  S
O966        C968   1.298       .  A
O967      Zr1002   2.641       .  S
O967        C968   1.333       .  A
O969       Zr978   2.495       .  S
O969        C971   1.300       .  A
O970      Zr1001   2.627       .  S
O970        C971   1.330       .  A
O972       Zr975   2.499       .  S
O972        C974   1.303       .  A
O973      Zr1002   2.578       .  S
O973        C974   1.317       .  A
Zr975       O976   2.433       .  S
Zr975       O977   2.435       .  S
Zr975       O981   2.392       .  S
Zr975       O982   2.403       .  S
Zr975      O1005   2.399       .  S
Zr975      O1007   2.394       .  S
O976       H1019   0.989       .  S
O977       H1018   0.990       .  S
O977       H1022   0.990       .  S
Zr978       O979   2.437       .  S
Zr978       O980   2.437       .  S
Zr978       O982   2.383       .  S
Zr978       O981   2.409       .  S
Zr978      O1006   2.397       .  S
Zr978      O1008   2.397       .  S
O979       H1020   0.990       .  S
O979       H1023   0.989       .  S
O980       H1013   0.991       .  S
O981      Zr1001   2.433       .  S
O982      Zr1002   2.436       .  S
O982       H1009   0.965       .  S
O983       Zr995   2.503       .  S
O983        C985   1.301       .  A
O984      Zr1002   2.624       .  S
O984        C985   1.329       .  A
O986       Zr998   2.505       .  S
O986        C988   1.304       .  A
O987      Zr1001   2.574       .  S
O987        C988   1.316       .  A
O989       Zr998   2.522       .  S
O989        C991   1.302       .  A
O990      Zr1002   2.680       .  S
O990        C991   1.341       .  A
O992       Zr995   2.508       .  S
O992        C994   1.300       .  A
O993      Zr1001   2.634       .  S
O993        C994   1.331       .  A
Zr995       O996   2.437       .  S
Zr995       O997   2.435       .  S
Zr995      O1003   2.410       .  S
Zr995      O1004   2.376       .  S
Zr995      O1007   2.402       .  S
Zr995      O1005   2.393       .  S
O996       H1016   0.988       .  S
O996       H1021   0.989       .  S
O997       H1017   0.990       .  S
Zr998       O999   2.433       .  S
Zr998      O1000   2.436       .  S
Zr998      O1004   2.396       .  S
Zr998      O1003   2.399       .  S
Zr998      O1008   2.395       .  S
Zr998      O1006   2.396       .  S
O999       H1015   0.989       .  S
O1000      H1014   0.990       .  S
O1000      H1024   0.990       .  S
Zr1001     O1004   2.433       .  S
Zr1001     O1006   2.457       .  S
Zr1001     O1007   2.433       .  S
Zr1002     O1003   2.439       .  S
Zr1002     O1005   2.456       .  S
Zr1002     O1008   2.427       .  S
O1003      H1011   0.963       .  S
O1006      H1010   0.967       .  S
O1007      H1012   0.967       .  S
C1025      C1027   1.583       .  S
C1025      C1029   1.518       .  S
C1025      C1028   1.532       .  S
C1025      C1483   1.621       .  S
C1026      C1030   1.526       .  S
C1026      C1032   1.521       .  S
C1026      C1031   1.562       .  S
C1026      C1415   1.625       .  S
C1027      C1035   1.394       .  A
C1027      C1030   1.441       .  A
C1028      C1039   1.386       .  A
C1028      C1031   1.447       .  A
C1029      C1043   1.352       .  A
C1029      C1032   1.402       .  A
C1030      C1033   1.340       .  A
C1031      C1037   1.337       .  A
C1032      C1040   1.353       .  A
C1033      N1034   1.328       .  A
C1033      H1046   1.067       .  S
N1034      C1035   1.372       .  A
N1034      C1307   1.462       .  S
C1035      H1036   1.076       .  S
C1037      N1038   1.346       .  A
C1037      H1047   1.083       .  S
N1038      C1039   1.347       .  A
N1038      C1125   1.442       .  S
C1039      H1045   1.079       .  S
C1040      N1041   1.348       .  A
C1040      H1042   1.072       .  S
N1041      C1043   1.337       .  A
N1041      C1068   1.395       .  S
C1043      H1044   1.070       .  S
N1048      C1053   1.332       .  A
N1048      C3100   1.332       .  A
N1048      H1080   1.042       .  S
N1049      C1056   1.327       .  A
N1049      C1057   1.323       .  A
N1050      C1055   1.344       .  A
N1050      C3102   1.345       .  A
N1050      H1081   1.045       .  S
N1051      C1058   1.327       .  A
N1051      C1059   1.333       .  A
C1052      C1060   1.383       .  A
C1052      C1068   1.381       .  A
C1052      N3096   1.331   1_455  A
C1053      C1069   1.379       .  A
C1053      C1061   1.385       .  A
C1054      C1062   1.386       .  A
C1054      C1071   1.403       .  A
C1054      N3098   1.347   1_455  A
C1055      C1070   1.404       .  A
C1055      C1063   1.388       .  A
C1056      C1068   1.397       .  A
C1056      C1064   1.388       .  A
C1057      C1071   1.372       .  A
C1057      C1065   1.384       .  A
C1058      C1066   1.389       .  A
C1058      C1069   1.398       .  A
C1059      C1067   1.383       .  A
C1059      C1070   1.376       .  A
C1060      C3109   1.379   1_455  A
C1060      H1072   1.081       .  S
C1061      C3108   1.378       .  A
C1061      H1073   1.083       .  S
C1062      C3111   1.356   1_455  A
C1062      H1074   1.081       .  S
C1063      C3110   1.358       .  A
C1063      H1075   1.080       .  S
C1064      C1065   1.378       .  A
C1064      H1076   1.080       .  S
C1065      H1077   1.083       .  S
C1066      C1067   1.376       .  A
C1066      H1078   1.078       .  S
C1067      H1079   1.083       .  S
C1069      N1353   1.394       .  S
C1070      N1091   1.422       .  S
C1071      N1399   1.416       .  S
C1082      C1084   1.503       .  S
C1082      C1086   1.564       .  S
C1082      C1085   1.522       .  S
C1082      C1418   1.681       .  S
C1083      C1087   1.563       .  S
C1083      C1089   1.547       .  S
C1083      C1088   1.540       .  S
C1083      C1503   1.672       .  S
C1084      C1092   1.355       .  A
C1084      C1087   1.434       .  A
C1085      C1096   1.343       .  A
C1085      C1088   1.438       .  A
C1086      C1100   1.319       .  A
C1086      C1089   1.451       .  A
C1087      C1090   1.373       .  A
C1088      C1094   1.362       .  A
C1089      C1097   1.369       .  A
C1090      N1091   1.361       .  A
C1090      H1103   1.078       .  S
N1091      C1092   1.339       .  A
C1092      H1093   1.084       .  S
C1094      N1095   1.353       .  A
C1094      H1104   1.073       .  S
N1095      C1096   1.329       .  A
N1095      C1159   1.425       .  S
C1096      H1102   1.081       .  S
C1097      N1098   1.355       .  A
C1097      H1099   1.062       .  S
N1098      C1100   1.341       .  A
N1098      C1273   1.472       .  S
C1100      H1101   1.025       .  S
N1105      C1109   1.331       .  A
N1105      H1137   1.046       .  S
N1106      C1113   1.342       .  A
N1106      C1114   1.333       .  A
N1107      C1111   1.347       .  A
N1107      H1138   1.045       .  S
N1108      C1115   1.331       .  A
N1108      C1116   1.336       .  A
C1109      C1117   1.374       .  A
C1109      C1125   1.384       .  A
C1110      C1126   1.375       .  A
C1110      C1118   1.369   1_565  A
C1111      C1119   1.360       .  A
C1111      C1128   1.395       .  A
C1112      C1127   1.416       .  A
C1112      C1120   1.386   1_565  A
C1113      C1125   1.425       .  A
C1113      C1121   1.388       .  A
C1114      C1128   1.423       .  A
C1114      C1122   1.378       .  A
C1115      C1123   1.373       .  A
C1115      C1126   1.420       .  A
C1116      C1124   1.385       .  A
C1116      C1127   1.428       .  A
C1117      H1129   1.077       .  S
C1118      H1130   1.073   1_545  S
C1119      H1131   1.071       .  S
C1120      H1132   1.068   1_545  S
C1121      C1122   1.384       .  A
C1121      H1133   1.071       .  S
C1122      H1134   1.083       .  S
C1123      C1124   1.378       .  A
C1123      H1135   1.076       .  S
C1124      H1136   1.057       .  S
C1126      N1403   1.434       .  S
C1127      N1186   1.454       .  S
C1128      N1380   1.424       .  S
N1139      C1144   1.340       .  A
N1139      H1171   1.045       .  S
N1140      C1147   1.334       .  A
N1140      C1148   1.341       .  A
N1141      C1146   1.333       .  A
N1141      H1172   1.046       .  S
N1142      C1149   1.336       .  A
N1142      C1150   1.330       .  A
C1143      C1151   1.362       .  A
C1143      C1159   1.394       .  A
C1144      C1160   1.417       .  A
C1144      C1152   1.388       .  A
C1145      C1153   1.375       .  A
C1145      C1162   1.385       .  A
C1146      C1161   1.378       .  A
C1146      C1154   1.371       .  A
C1147      C1159   1.423       .  A
C1147      C1155   1.378       .  A
C1148      C1162   1.425       .  A
C1148      C1156   1.390       .  A
C1149      C1157   1.385       .  A
C1149      C1160   1.429       .  A
C1150      C1158   1.372       .  A
C1150      C1161   1.420       .  A
C1151      H1163   1.072       .  S
C1152      H1164   1.068       .  S
C1153      H1165   1.076       .  S
C1154      H1166   1.074       .  S
C1155      C1156   1.383       .  A
C1155      H1167   1.083       .  S
C1156      H1168   1.072       .  S
C1157      C1158   1.379       .  A
C1157      H1169   1.058       .  S
C1158      H1170   1.076       .  S
C1160      N1357   1.454       .  S
C1161      N1246   1.438       .  S
C1162      N1334   1.443       .  S
C1173      C1175   1.540       .  S
C1173      C1177   1.522       .  S
C1173      C1176   1.550       .  S
C1173      C1438   1.620       .  S
C1174      C1178   1.511       .  S
C1174      C1180   1.538       .  S
C1174      C1179   1.563       .  S
C1174      C1486   1.604       .  S
C1175      C1183   1.357       .  A
C1175      C1178   1.412       .  A
C1176      C1187   1.356       .  A
C1176      C1179   1.449       .  A
C1177      C1191   1.326       .  A
C1177      C1180   1.430       .  A
C1178      C1181   1.353       .  A
C1179      C1185   1.399       .  A
C1180      C1188   1.369       .  A
C1181      N1182   1.336       .  A
C1181      H1194   1.079       .  S
N1182      C1183   1.355       .  A
N1182      C1219   1.395       .  S
C1183      H1184   1.079       .  S
C1185      N1186   1.360       .  A
C1185      H1195   1.072       .  S
N1186      C1187   1.334       .  A
C1187      H1193   1.084       .  S
C1188      N1189   1.348       .  A
C1188      H1190   1.078       .  S
N1189      C1191   1.336       .  A
N1189      C1275   1.428       .  S
C1191      H1192   1.074       .  S
N1196      C1201   1.344       .  A
N1196      C3248   1.344       .  A
N1196      H1228   1.045       .  S
N1197      C1204   1.334       .  A
N1197      C1205   1.329       .  A
N1198      C1203   1.334       .  A
N1198      C3250   1.330       .  A
N1198      H1229   1.041       .  S
N1199      C1206   1.321       .  A
N1199      C1207   1.325       .  A
C1200      C1208   1.389       .  A
C1200      C1216   1.402       .  A
C1200      N3244   1.343       .  A
C1201      C1217   1.398       .  A
C1201      C1209   1.386       .  A
C1202      C1210   1.386       .  A
C1202      C1219   1.380       .  A
C1202      N3246   1.330   1_455  A
C1203      C1218   1.389       .  A
C1203      C1211   1.382       .  A
C1204      C1216   1.373       .  A
C1204      C1212   1.381       .  A
C1205      C1219   1.401       .  A
C1205      C1213   1.390       .  A
C1206      C1214   1.382       .  A
C1206      C1217   1.366       .  A
C1207      C1215   1.390       .  A
C1207      C1218   1.398       .  A
C1208      C3257   1.358   1_455  A
C1208      H1220   1.080       .  S
C1209      C3256   1.357       .  A
C1209      H1221   1.082       .  S
C1210      C3259   1.380   1_455  A
C1210      H1222   1.083       .  S
C1211      C3258   1.381       .  A
C1211      H1223   1.080       .  S
C1212      C1213   1.374       .  A
C1212      H1224   1.083       .  S
C1213      H1225   1.078       .  S
C1214      C1215   1.379       .  A
C1214      H1226   1.082       .  S
C1215      H1227   1.080       .  S
C1216      N1383   1.421       .  S
C1217      N1239   1.412       .  S
C1218      N1330   1.399       .  S
C1230      C1232   1.551       .  S
C1230      C1234   1.550       .  S
C1230      C1233   1.506       .  S
C1230      C1506   1.635       .  S
C1231      C1235   1.517       .  S
C1231      C1237   1.533       .  S
C1231      C1236   1.588       .  S
C1231      C1435   1.700       .  S
C1232      C1240   1.383       .  A
C1232      C1235   1.444       .  A
C1233      C1244   1.368       .  A
C1233      C1236   1.449       .  A
C1234      C1248   1.369       .  A
C1234      C1237   1.444       .  A
C1235      C1238   1.347       .  A
C1236      C1242   1.329       .  A
C1237      C1245   1.347       .  A
C1238      N1239   1.323       .  A
C1238      H1251   1.082       .  S
N1239      C1240   1.353       .  A
C1240      H1241   1.080       .  S
C1242      N1243   1.362       .  A
C1242      H1252   1.058       .  S
N1243      C1244   1.326       .  A
N1243      C1309   1.454       .  S
C1244      H1250   1.075       .  S
C1245      N1246   1.328       .  A
C1245      H1247   1.084       .  S
N1246      C1248   1.355       .  A
C1248      H1249   1.067       .  S
N1253      C1770   1.341   1_554  A
N1253      C1257   1.348       .  A
N1253      H1285   1.020       .  S
N1254      C1261   1.327       .  A
N1254      C1262   1.341       .  A
N1255      C1772   1.317   1_554  A
N1255      C1259   1.334       .  A
N1255      H1286   1.048       .  S
N1256      C1263   1.312       .  A
N1256      C1264   1.332       .  A
C1257      C1265   1.375       .  A
C1257      C1273   1.408       .  A
C1258      C1274   1.428       .  A
C1258      C1266   1.372       .  A
C1258      N1765   1.340       .  A
C1259      C1267   1.371       .  A
C1259      C1276   1.355       .  A
C1260      C1275   1.362       .  A
C1260      C1268   1.359       .  A
C1260      N1767   1.316       .  A
C1261      C1273   1.414       .  A
C1261      C1269   1.389       .  A
C1262      C1276   1.418       .  A
C1262      C1270   1.379       .  A
C1263      C1271   1.390       .  A
C1263      C1274   1.394       .  A
C1264      C1272   1.376       .  A
C1264      C1275   1.393       .  A
C1265      C1778   1.392       .  A
C1265      H1277   1.082       .  S
C1266      C1777   1.391       .  A
C1266      H1278   1.065       .  S
C1267      C1780   1.368       .  A
C1267      H1279   1.082       .  S
C1268      C1779   1.370       .  A
C1268      H1280   1.069       .  S
C1269      C1270   1.388       .  A
C1269      H1281   1.081       .  S
C1270      H1282   1.077       .  S
C1271      C1272   1.379       .  A
C1271      H1283   1.069       .  S
C1272      H1284   1.080       .  S
C1274      N1337   1.462       .  S
C1276      N1406   1.457       .  S
N1287      C1804   1.351       .  A
N1287      C1291   1.341   1_556  A
N1287      H1319   1.027       .  S
N1288      C1295   1.312       .  A
N1288      C1296   1.333       .  A
N1289      C1806   1.332       .  A
N1289      C1293   1.317   1_556  A
N1289      H1320   1.048       .  S
N1290      C1297   1.327       .  A
N1290      C1298   1.341       .  A
C1291      C1299   1.373   1_554  A
C1291      C1307   1.428       .  A
C1292      C1308   1.407       .  A
C1292      C1300   1.374       .  A
C1292      N1799   1.352       .  A
C1293      C1301   1.358   1_554  A
C1293      C1310   1.358       .  A
C1294      C1309   1.352       .  A
C1294      C1302   1.372       .  A
C1294      N1801   1.332       .  A
C1295      C1307   1.397       .  A
C1295      C1303   1.391       .  A
C1296      C1310   1.395       .  A
C1296      C1304   1.377       .  A
C1297      C1305   1.388       .  A
C1297      C1308   1.416       .  A
C1298      C1306   1.379       .  A
C1298      C1309   1.418       .  A
C1299      C1812   1.390       .  A
C1299      H1311   1.065   1_556  S
C1300      C1811   1.390       .  A
C1300      H1312   1.082       .  S
C1301      C1814   1.366       .  A
C1301      H1313   1.069   1_556  S
C1302      C1813   1.367       .  A
C1302      H1314   1.082       .  S
C1303      C1304   1.381       .  A
C1303      H1315   1.069       .  S
C1304      H1316   1.079       .  S
C1305      C1306   1.389       .  A
C1305      H1317   1.083       .  S
C1306      H1318   1.077       .  S
C1308      N1376   1.471       .  S
C1310      N1360   1.426       .  S
C1321      C1323   1.523       .  S
C1321      C1325   1.583       .  S
C1321      C1324   1.528       .  S
C1321      C1497   1.621       .  S
C1322      C1326   1.522       .  S
C1322      C1328   1.529       .  S
C1322      C1327   1.563       .  S
C1322      C1441   1.626       .  S
C1323      C1331   1.355       .  A
C1323      C1326   1.401       .  A
C1324      C1335   1.382       .  A
C1324      C1327   1.445       .  A
C1325      C1339   1.396       .  A
C1325      C1328   1.443       .  A
C1326      C1329   1.359       .  A
C1327      C1333   1.336       .  A
C1328      C1336   1.339       .  A
C1329      N1330   1.349       .  A
C1329      H1342   1.075       .  S
N1330      C1331   1.340       .  A
C1331      H1332   1.070       .  S
C1333      N1334   1.348       .  A
C1333      H1343   1.082       .  S
N1334      C1335   1.345       .  A
C1335      H1341   1.079       .  S
C1336      N1337   1.328       .  A
C1336      H1338   1.067       .  S
N1337      C1339   1.372       .  A
C1339      H1340   1.076       .  S
C1344      C1346   1.510       .  S
C1344      C1348   1.531       .  S
C1344      C1347   1.563       .  S
C1344      C1500   1.600       .  S
C1345      C1349   1.540       .  S
C1345      C1351   1.524       .  S
C1345      C1350   1.552       .  S
C1345      C1424   1.622       .  S
C1346      C1354   1.354       .  A
C1346      C1349   1.415       .  A
C1347      C1358   1.398       .  A
C1347      C1350   1.450       .  A
C1348      C1362   1.368       .  A
C1348      C1351   1.427       .  A
C1349      C1352   1.355       .  A
C1350      C1356   1.359       .  A
C1351      C1359   1.326       .  A
C1352      N1353   1.352       .  A
C1352      H1365   1.075       .  S
N1353      C1354   1.334       .  A
C1354      H1355   1.079       .  S
C1356      N1357   1.335       .  A
C1356      H1366   1.084       .  S
N1357      C1358   1.360       .  A
C1358      H1364   1.073       .  S
C1359      N1360   1.339       .  A
C1359      H1361   1.073       .  S
N1360      C1362   1.345       .  A
C1362      H1363   1.079       .  S
C1367      C1369   1.567       .  S
C1367      C1371   1.501       .  S
C1367      C1370   1.522       .  S
C1367      C1444   1.684       .  S
C1368      C1372   1.541       .  S
C1368      C1374   1.563       .  S
C1368      C1373   1.545       .  S
C1368      C1477   1.672       .  S
C1369      C1377   1.319       .  A
C1369      C1372   1.450       .  A
C1370      C1381   1.344       .  A
C1370      C1373   1.441       .  A
C1371      C1385   1.354       .  A
C1371      C1374   1.434       .  A
C1372      C1375   1.368       .  A
C1373      C1379   1.364       .  A
C1374      C1382   1.372       .  A
C1375      N1376   1.355       .  A
C1375      H1388   1.065       .  S
N1376      C1377   1.343       .  A
C1377      H1378   1.027       .  S
C1379      N1380   1.354       .  A
C1379      H1389   1.073       .  S
N1380      C1381   1.328       .  A
C1381      H1387   1.083       .  S
C1382      N1383   1.361       .  A
C1382      H1384   1.079       .  S
N1383      C1385   1.337       .  A
C1385      H1386   1.084       .  S
C1390      C1392   1.554       .  S
C1390      C1394   1.507       .  S
C1390      C1393   1.545       .  S
C1390      C1480   1.634       .  S
C1391      C1395   1.514       .  S
C1391      C1397   1.588       .  S
C1391      C1396   1.534       .  S
C1391      C1421   1.698       .  S
C1392      C1400   1.384       .  A
C1392      C1395   1.441       .  A
C1393      C1404   1.367       .  A
C1393      C1396   1.442       .  A
C1394      C1408   1.369       .  A
C1394      C1397   1.449       .  A
C1395      C1398   1.349       .  A
C1396      C1402   1.345       .  A
C1397      C1405   1.330       .  A
C1398      N1399   1.322       .  A
C1398      H1411   1.082       .  S
N1399      C1400   1.355       .  A
C1400      H1401   1.078       .  S
C1402      N1403   1.330       .  A
C1402      H1412   1.084       .  S
N1403      C1404   1.352       .  A
C1404      H1410   1.070       .  S
C1405      N1406   1.361       .  A
C1405      H1407   1.055       .  S
N1406      C1408   1.327       .  A
C1408      H1409   1.074       .  S
O1413     Zr1425   2.507   1_455  S
O1413      C1415   1.299       .  A
O1414     Zr1963   2.580       .  S
O1414      C1415   1.315       .  A
O1416     Zr3476   2.563       .  S
O1416      C1418   1.312       .  A
O1417      C1418   1.323       .  A
O1419     Zr1428   2.579   1_455  S
O1419      C1421   1.318       .  A
O1420      C1421   1.324       .  A
O1422     Zr3473   2.474       .  S
O1422      C1424   1.291       .  A
O1423     Zr1452   2.611       .  S
O1423      C1424   1.325       .  A
Zr1425     O3470   2.466       .  S
Zr1425     O1426   2.419       .  S
Zr1425     O1427   2.434       .  S
Zr1425     O1431   2.409   1_655  S
Zr1425     O3480   2.411       .  S
Zr1425     O3503   2.378       .  S
Zr1425     O1969   2.374   1_655  S
O1426      H1469   0.990       .  S
O1427      H1468   0.990   1_655  S
O1427      H1472   0.986       .  S
Zr1428     O3464   2.568       .  S
Zr1428     O1429   2.433       .  S
Zr1428     O3478   2.434       .  S
Zr1428     O2456   2.430   1_565  S
Zr1428     O1968   2.384   1_654  S
Zr1428     O3506   2.389   1_554  S
O1429      H3518   0.990       .  S
O1429      H1473   0.990   1_655  S
O1430     Zr3476   2.436       .  S
O1430      H3511   0.989       .  S
O1431     Zr1963   2.440       .  S
O1432     Zr3473   2.413       .  S
O1432     Zr2452   2.429       .  S
O1432     Zr1452   2.441       .  S
O1432      H1459   0.968       .  S
O1433     Zr3493   2.576       .  S
O1433      C1435   1.318       .  A
O1434     Zr1964   2.642       .  S
O1434      C1435   1.326       .  A
O1436     Zr1448   2.472   1_455  S
O1436      C1438   1.289       .  A
O1437      C1438   1.326       .  A
O1439     Zr3496   2.504       .  S
O1439      C1441   1.298       .  A
O1440      C1441   1.315       .  A
O1442     Zr1445   2.573   1_455  S
O1442      C1444   1.314       .  A
O1443     Zr1451   2.649       .  S
O1443      C1444   1.323       .  A
Zr1445     O3481   2.578       .  S
Zr1445     O1446   2.434   1_655  S
Zr1445     O1447   2.435       .  S
Zr1445     O3501   2.429       .  S
Zr1445     O1454   2.428   1_655  S
Zr1445     O1457   2.395   1_655  S
Zr1445     O4015   2.385       .  S
O1446      H3514   0.990   1_455  S
O1446      H3519   0.989       .  S
O1447      H3515   0.990       .  S
Zr1448     O3487   2.503       .  S
Zr1448     O3497   2.419   1_655  S
Zr1448     O1450   2.436       .  S
Zr1448     O2477   2.418   1_565  S
Zr1448     O4018   2.367       .  S
Zr1448     O1456   2.380   1_655  S
O1449     Zr3496   2.420       .  S
O1449      H3513   0.991       .  S
O1450      H3512   0.990       .  S
O1450      H3522   0.988       .  S
Zr1451     O1926   2.586       .  S
Zr1451     O1943   2.440       .  S
Zr1451     O1454   2.439       .  S
Zr1451     O1457   2.429       .  S
Zr1452     O1946   2.640   1_554  S
Zr1452     O1965   2.448   1_554  S
Zr1452     O1455   2.419       .  S
O1453     Zr3493   2.427       .  S
O1453     Zr2472   2.416       .  S
O1453     Zr1964   2.447       .  S
O1453      H1461   0.965       .  S
O1455     Zr3473   2.378       .  S
O1455     Zr4005   2.381   1_554  S
O1456     Zr1940   2.384   1_455  S
O1456      H1460   0.965       .  S
O1457     Zr1937   2.372   1_455  S
O1457      H1462   0.966       .  S
O1458     Zr3476   2.389   1_556  S
O1458     Zr4008   2.369       .  S
H1463      O3478   0.989   1_455  S
H1464      O3498   0.990       .  S
H1465      O3497   0.991       .  S
H1466      O3494   0.990       .  S
H1467      O3495   0.990       .  S
H1470      O3477   0.988       .  S
H1471      O3494   0.988       .  S
H1474      O3498   0.988       .  S
O1475     Zr1487   2.524       .  S
O1475      C1477   1.303       .  A
O1476     Zr1513   2.682       .  S
O1476      C1477   1.342       .  A
O1478     Zr1490   2.496       .  S
O1478      C1480   1.297       .  A
O1479     Zr1514   2.637       .  S
O1479      C1480   1.332       .  A
O1481     Zr1490   2.494       .  S
O1481      C1483   1.300       .  A
O1482     Zr1513   2.622       .  S
O1482      C1483   1.329       .  A
O1484     Zr1487   2.496       .  S
O1484      C1486   1.302       .  A
O1485     Zr1514   2.583       .  S
O1485      C1486   1.319       .  A
Zr1487     O1488   2.432       .  S
Zr1487     O1489   2.436       .  S
Zr1487     O1493   2.390       .  S
Zr1487     O1494   2.403       .  S
Zr1487     O1517   2.394       .  S
Zr1487     O1519   2.394       .  S
O1488      H1531   0.989       .  S
O1489      H1530   0.990       .  S
O1489      H1534   0.990       .  S
Zr1490     O1491   2.433       .  S
Zr1490     O1492   2.436       .  S
Zr1490     O1494   2.384       .  S
Zr1490     O1493   2.405       .  S
Zr1490     O1518   2.393       .  S
Zr1490     O1520   2.393       .  S
O1491      H1532   0.989       .  S
O1491      H1535   0.989       .  S
O1492      H1525   0.990       .  S
O1493     Zr1513   2.428       .  S
O1494     Zr1514   2.436       .  S
O1494      H1521   0.964       .  S
O1495     Zr1507   2.485       .  S
O1495      C1497   1.297       .  A
O1496     Zr1514   2.626       .  S
O1496      C1497   1.330       .  A
O1498     Zr1510   2.499       .  S
O1498      C1500   1.303       .  A
O1499     Zr1513   2.570       .  S
O1499      C1500   1.316       .  A
O1501     Zr1510   2.521       .  S
O1501      C1503   1.301       .  A
O1502     Zr1514   2.686       .  S
O1502      C1503   1.343       .  A
O1504     Zr1507   2.498       .  S
O1504      C1506   1.298       .  A
O1505     Zr1513   2.632       .  S
O1505      C1506   1.331       .  A
Zr1507     O1508   2.440       .  S
Zr1507     O1509   2.435       .  S
Zr1507     O1515   2.410       .  S
Zr1507     O1516   2.371       .  S
Zr1507     O1519   2.399       .  S
Zr1507     O1517   2.390       .  S
O1508      H1528   0.988       .  S
O1508      H1533   0.989       .  S
O1509      H1529   0.990       .  S
Zr1510     O1511   2.433       .  S
Zr1510     O1512   2.437       .  S
Zr1510     O1516   2.398       .  S
Zr1510     O1515   2.398       .  S
Zr1510     O1520   2.391       .  S
Zr1510     O1518   2.398       .  S
O1511      H1527   0.989       .  S
O1512      H1526   0.990       .  S
O1512      H1536   0.990       .  S
Zr1513     O1516   2.432       .  S
Zr1513     O1518   2.458       .  S
Zr1513     O1519   2.429       .  S
Zr1514     O1515   2.437       .  S
Zr1514     O1517   2.449       .  S
Zr1514     O1520   2.424       .  S
O1515      H1523   0.967       .  S
O1518      H1522   0.968       .  S
O1519      H1524   0.965       .  S
C1537      C1539   1.583       .  S
C1537      C1541   1.520       .  S
C1537      C1540   1.530       .  S
C1537      C1995   1.623       .  S
C1538      C1542   1.528       .  S
C1538      C1544   1.522       .  S
C1538      C1543   1.564       .  S
C1538      C1927   1.632       .  S
C1539      C1547   1.394       .  A
C1539      C1542   1.444       .  A
C1540      C1551   1.386       .  A
C1540      C1543   1.447       .  A
C1541      C1555   1.354       .  A
C1541      C1544   1.404       .  A
C1542      C1545   1.339       .  A
C1543      C1549   1.337       .  A
C1544      C1552   1.353       .  A
C1545      N1546   1.328       .  A
C1545      H1558   1.067       .  S
N1546      C1547   1.372       .  A
N1546      C1819   1.462       .  S
C1547      H1548   1.076       .  S
C1549      N1550   1.345       .  A
C1549      H1559   1.083       .  S
N1550      C1551   1.347       .  A
N1550      C1637   1.442       .  S
C1551      H1557   1.079       .  S
C1552      N1553   1.347       .  A
C1552      H1554   1.070       .  S
N1553      C1555   1.338       .  A
N1553      C1580   1.395       .  S
C1555      H1556   1.073       .  S
N1560      C1565   1.333       .  A
N1560      C3612   1.332       .  A
N1560      H1592   1.042       .  S
N1561      C1568   1.325       .  A
N1561      C1569   1.323       .  A
N1562      C1567   1.346       .  A
N1562      C3614   1.348       .  A
N1562      H1593   1.045       .  S
N1563      C1570   1.327       .  A
N1563      C1571   1.332       .  A
C1564      C1572   1.383       .  A
C1564      C1580   1.386       .  A
C1564      N3608   1.331   1_455  A
C1565      C1581   1.380       .  A
C1565      C1573   1.385       .  A
C1566      C1574   1.385       .  A
C1566      C1583   1.401       .  A
C1566      N3610   1.347   1_455  A
C1567      C1582   1.408       .  A
C1567      C1575   1.389       .  A
C1568      C1580   1.398       .  A
C1568      C1576   1.390       .  A
C1569      C1583   1.368       .  A
C1569      C1577   1.381       .  A
C1570      C1578   1.389       .  A
C1570      C1581   1.398       .  A
C1571      C1579   1.384       .  A
C1571      C1582   1.375       .  A
C1572      C3621   1.378   1_455  A
C1572      H1584   1.078       .  S
C1573      C3620   1.378       .  A
C1573      H1585   1.083       .  S
C1574      C3623   1.358   1_455  A
C1574      H1586   1.082       .  S
C1575      C3622   1.356       .  A
C1575      H1587   1.079       .  S
C1576      C1577   1.377       .  A
C1576      H1588   1.080       .  S
C1577      H1589   1.083       .  S
C1578      C1579   1.377       .  A
C1578      H1590   1.079       .  S
C1579      H1591   1.083       .  S
C1581      N1865   1.396       .  S
C1582      N1603   1.422       .  S
C1583      N1911   1.415       .  S
C1594      C1596   1.498       .  S
C1594      C1598   1.568       .  S
C1594      C1597   1.522       .  S
C1594      C1930   1.680       .  S
C1595      C1599   1.563       .  S
C1595      C1601   1.542       .  S
C1595      C1600   1.542       .  S
C1595      C2015   1.670       .  S
C1596      C1604   1.355       .  A
C1596      C1599   1.434       .  A
C1597      C1608   1.346       .  A
C1597      C1600   1.439       .  A
C1598      C1612   1.318       .  A
C1598      C1601   1.449       .  A
C1599      C1602   1.371       .  A
C1600      C1606   1.362       .  A
C1601      C1609   1.368       .  A
C1602      N1603   1.362       .  A
C1602      H1615   1.079       .  S
N1603      C1604   1.336       .  A
C1604      H1605   1.084       .  S
C1606      N1607   1.353       .  A
C1606      H1616   1.073       .  S
N1607      C1608   1.330       .  A
N1607      C1671   1.425       .  S
C1608      H1614   1.083       .  S
C1609      N1610   1.355       .  A
C1609      H1611   1.064       .  S
N1610      C1612   1.342       .  A
N1610      C1785   1.472       .  S
C1612      H1613   1.024       .  S
N1617      C1621   1.332       .  A
N1617      H1649   1.046       .  S
N1618      C1625   1.343       .  A
N1618      C1626   1.332       .  A
N1619      C1623   1.347       .  A
N1619      H1650   1.045       .  S
N1620      C1627   1.331       .  A
N1620      C1628   1.337       .  A
C1621      C1629   1.374       .  A
C1621      C1637   1.385       .  A
C1622      C1638   1.378       .  A
C1622      C1630   1.369   1_565  A
C1623      C1631   1.363       .  A
C1623      C1640   1.395       .  A
C1624      C1639   1.415       .  A
C1624      C1632   1.388   1_565  A
C1625      C1637   1.426       .  A
C1625      C1633   1.388       .  A
C1626      C1640   1.421       .  A
C1626      C1634   1.377       .  A
C1627      C1635   1.373       .  A
C1627      C1638   1.421       .  A
C1628      C1636   1.386       .  A
C1628      C1639   1.427       .  A
C1629      H1641   1.077       .  S
C1630      H1642   1.071   1_545  S
C1631      H1643   1.072       .  S
C1632      H1644   1.070   1_545  S
C1633      C1634   1.383       .  A
C1633      H1645   1.070       .  S
C1634      H1646   1.083       .  S
C1635      C1636   1.378       .  A
C1635      H1647   1.075       .  S
C1636      H1648   1.059       .  S
C1638      N1915   1.436       .  S
C1639      N1698   1.453       .  S
C1640      N1892   1.425       .  S
N1651      C1656   1.339       .  A
N1651      H1683   1.045       .  S
N1652      C1659   1.333       .  A
N1652      C1660   1.342       .  A
N1653      C1658   1.333       .  A
N1653      H1684   1.046       .  S
N1654      C1661   1.335       .  A
N1654      C1662   1.332       .  A
C1655      C1663   1.362       .  A
C1655      C1671   1.395       .  A
C1656      C1672   1.415       .  A
C1656      C1664   1.388       .  A
C1657      C1665   1.375       .  A
C1657      C1674   1.382       .  A
C1658      C1673   1.378       .  A
C1658      C1666   1.373       .  A
C1659      C1671   1.423       .  A
C1659      C1667   1.379       .  A
C1660      C1674   1.424       .  A
C1660      C1668   1.389       .  A
C1661      C1669   1.385       .  A
C1661      C1672   1.427       .  A
C1662      C1670   1.372       .  A
C1662      C1673   1.419       .  A
C1663      H1675   1.071       .  S
C1664      H1676   1.069       .  S
C1665      H1677   1.078       .  S
C1666      H1678   1.076       .  S
C1667      C1668   1.384       .  A
C1667      H1679   1.083       .  S
C1668      H1680   1.072       .  S
C1669      C1670   1.378       .  A
C1669      H1681   1.057       .  S
C1670      H1682   1.077       .  S
C1672      N1869   1.453       .  S
C1673      N1758   1.439       .  S
C1674      N1846   1.442       .  S
C1685      C1687   1.537       .  S
C1685      C1689   1.522       .  S
C1685      C1688   1.551       .  S
C1685      C1950   1.619       .  S
C1686      C1690   1.512       .  S
C1686      C1692   1.535       .  S
C1686      C1691   1.562       .  S
C1686      C1998   1.601       .  S
C1687      C1695   1.355       .  A
C1687      C1690   1.413       .  A
C1688      C1699   1.356       .  A
C1688      C1691   1.449       .  A
C1689      C1703   1.326       .  A
C1689      C1692   1.428       .  A
C1690      C1693   1.353       .  A
C1691      C1697   1.397       .  A
C1692      C1700   1.369       .  A
C1693      N1694   1.336       .  A
C1693      H1706   1.078       .  S
N1694      C1695   1.352       .  A
N1694      C1731   1.393       .  S
C1695      H1696   1.078       .  S
C1697      N1698   1.359       .  A
C1697      H1707   1.072       .  S
N1698      C1699   1.335       .  A
C1699      H1705   1.084       .  S
C1700      N1701   1.347       .  A
C1700      H1702   1.078       .  S
N1701      C1703   1.337       .  A
N1701      C1787   1.426       .  S
C1703      H1704   1.072       .  S
N1708      C1713   1.345       .  A
N1708      C3760   1.346       .  A
N1708      H1740   1.045       .  S
N1709      C1716   1.336       .  A
N1709      C1717   1.329       .  A
N1710      C1715   1.333       .  A
N1710      C3762   1.331       .  A
N1710      H1741   1.041       .  S
N1711      C1718   1.321       .  A
N1711      C1719   1.326       .  A
C1712      C1720   1.389       .  A
C1712      C1728   1.402       .  A
C1712      N3756   1.344       .  A
C1713      C1729   1.401       .  A
C1713      C1721   1.386       .  A
C1714      C1722   1.386       .  A
C1714      C1731   1.380       .  A
C1714      N3758   1.330   1_455  A
C1715      C1730   1.386       .  A
C1715      C1723   1.383       .  A
C1716      C1728   1.374       .  A
C1716      C1724   1.380       .  A
C1717      C1731   1.401       .  A
C1717      C1725   1.390       .  A
C1718      C1726   1.384       .  A
C1718      C1729   1.371       .  A
C1719      C1727   1.389       .  A
C1719      C1730   1.398       .  A
C1720      C3769   1.358   1_455  A
C1720      H1732   1.080       .  S
C1721      C3768   1.357       .  A
C1721      H1733   1.082       .  S
C1722      C3771   1.378   1_455  A
C1722      H1734   1.083       .  S
C1723      C3770   1.379       .  A
C1723      H1735   1.080       .  S
C1724      C1725   1.374       .  A
C1724      H1736   1.083       .  S
C1725      H1737   1.078       .  S
C1726      C1727   1.379       .  A
C1726      H1738   1.083       .  S
C1727      H1739   1.080       .  S
C1728      N1895   1.424       .  S
C1729      N1751   1.412       .  S
C1730      N1842   1.398       .  S
C1742      C1744   1.552       .  S
C1742      C1746   1.549       .  S
C1742      C1745   1.505       .  S
C1742      C2018   1.637       .  S
C1743      C1747   1.515       .  S
C1743      C1749   1.535       .  S
C1743      C1748   1.588       .  S
C1743      C1947   1.701       .  S
C1744      C1752   1.381       .  A
C1744      C1747   1.443       .  A
C1745      C1756   1.370       .  A
C1745      C1748   1.448       .  A
C1746      C1760   1.369       .  A
C1746      C1749   1.445       .  A
C1747      C1750   1.349       .  A
C1748      C1754   1.328       .  A
C1749      C1757   1.346       .  A
C1750      N1751   1.323       .  A
C1750      H1763   1.082       .  S
N1751      C1752   1.353       .  A
C1752      H1753   1.079       .  S
C1754      N1755   1.362       .  A
C1754      H1764   1.055       .  S
N1755      C1756   1.325       .  A
N1755      C1821   1.455       .  S
C1756      H1762   1.075       .  S
C1757      N1758   1.329       .  A
C1757      H1759   1.084       .  S
N1758      C1760   1.354       .  A
C1760      H1761   1.068       .  S
N1765      C1769   1.348       .  A
N1765      H1797   1.018       .  S
N1766      C1773   1.327       .  A
N1766      C1774   1.340       .  A
N1767      C1771   1.332       .  A
N1767      H1798   1.048       .  S
N1768      C1775   1.312       .  A
N1768      C1776   1.330       .  A
C1769      C1777   1.372       .  A
C1769      C1785   1.407       .  A
C1770      C1786   1.428       .  A
C1770      C1778   1.372   1_556  A
C1771      C1779   1.372       .  A
C1771      C1788   1.354       .  A
C1772      C1787   1.363       .  A
C1772      C1780   1.359   1_556  A
C1773      C1785   1.411       .  A
C1773      C1781   1.388       .  A
C1774      C1788   1.415       .  A
C1774      C1782   1.379       .  A
C1775      C1783   1.390       .  A
C1775      C1786   1.394       .  A
C1776      C1784   1.377       .  A
C1776      C1787   1.393       .  A
C1777      H1789   1.082       .  S
C1778      H1790   1.066   1_554  S
C1779      H1791   1.082       .  S
C1780      H1792   1.070   1_554  S
C1781      C1782   1.388       .  A
C1781      H1793   1.082       .  S
C1782      H1794   1.077       .  S
C1783      C1784   1.380       .  A
C1783      H1795   1.069       .  S
C1784      H1796   1.079       .  S
C1786      N1849   1.462       .  S
C1788      N1918   1.456       .  S
N1799      C1803   1.342       .  A
N1799      H1831   1.008       .  S
N1800      C1807   1.312       .  A
N1800      C1808   1.333       .  A
N1801      C1805   1.316       .  A
N1801      H1832   1.048       .  S
N1802      C1809   1.327       .  A
N1802      C1810   1.341       .  A
C1803      C1811   1.372       .  A
C1803      C1819   1.428       .  A
C1804      C1820   1.407       .  A
C1804      C1812   1.374       .  A
C1805      C1813   1.357       .  A
C1805      C1822   1.357       .  A
C1806      C1821   1.352       .  A
C1806      C1814   1.372       .  A
C1807      C1819   1.396       .  A
C1807      C1815   1.391       .  A
C1808      C1822   1.395       .  A
C1808      C1816   1.377       .  A
C1809      C1817   1.388       .  A
C1809      C1820   1.415       .  A
C1810      C1818   1.380       .  A
C1810      C1821   1.419       .  A
C1811      H1823   1.066       .  S
C1812      H1824   1.082       .  S
C1813      H1825   1.069       .  S
C1814      H1826   1.082       .  S
C1815      C1816   1.380       .  A
C1815      H1827   1.070       .  S
C1816      H1828   1.080       .  S
C1817      C1818   1.391       .  A
C1817      H1829   1.082       .  S
C1818      H1830   1.077       .  S
C1820      N1888   1.471       .  S
C1822      N1872   1.425       .  S
C1833      C1835   1.521       .  S
C1833      C1837   1.582       .  S
C1833      C1836   1.529       .  S
C1833      C2009   1.624       .  S
C1834      C1838   1.522       .  S
C1834      C1840   1.528       .  S
C1834      C1839   1.563       .  S
C1834      C1953   1.626       .  S
C1835      C1843   1.353       .  A
C1835      C1838   1.403       .  A
C1836      C1847   1.383       .  A
C1836      C1839   1.446       .  A
C1837      C1851   1.395       .  A
C1837      C1840   1.443       .  A
C1838      C1841   1.358       .  A
C1839      C1845   1.337       .  A
C1840      C1848   1.340       .  A
C1841      N1842   1.348       .  A
C1841      H1854   1.075       .  S
N1842      C1843   1.337       .  A
C1843      H1844   1.068       .  S
C1845      N1846   1.347       .  A
C1845      H1855   1.083       .  S
N1846      C1847   1.345       .  A
C1847      H1853   1.079       .  S
C1848      N1849   1.327       .  A
C1848      H1850   1.067       .  S
N1849      C1851   1.372       .  A
C1851      H1852   1.076       .  S
C1856      C1858   1.510       .  S
C1856      C1860   1.534       .  S
C1856      C1859   1.563       .  S
C1856      C2012   1.603       .  S
C1857      C1861   1.543       .  S
C1857      C1863   1.521       .  S
C1857      C1862   1.552       .  S
C1857      C1936   1.621       .  S
C1858      C1866   1.353       .  A
C1858      C1861   1.416       .  A
C1859      C1870   1.399       .  A
C1859      C1862   1.449       .  A
C1860      C1874   1.367       .  A
C1860      C1863   1.428       .  A
C1861      C1864   1.359       .  A
C1862      C1868   1.357       .  A
C1863      C1871   1.327       .  A
C1864      N1865   1.354       .  A
C1864      H1877   1.077       .  S
N1865      C1866   1.332       .  A
C1866      H1867   1.078       .  S
C1868      N1869   1.334       .  A
C1868      H1878   1.084       .  S
N1869      C1870   1.360       .  A
C1870      H1876   1.074       .  S
C1871      N1872   1.337       .  A
C1871      H1873   1.074       .  S
N1872      C1874   1.345       .  A
C1874      H1875   1.078       .  S
C1879      C1881   1.564       .  S
C1879      C1883   1.503       .  S
C1879      C1882   1.523       .  S
C1879      C1956   1.683       .  S
C1880      C1884   1.545       .  S
C1880      C1886   1.563       .  S
C1880      C1885   1.544       .  S
C1880      C1989   1.668       .  S
C1881      C1889   1.317       .  A
C1881      C1884   1.449       .  A
C1882      C1893   1.341       .  A
C1882      C1885   1.439       .  A
C1883      C1897   1.354       .  A
C1883      C1886   1.433       .  A
C1884      C1887   1.369       .  A
C1885      C1891   1.366       .  A
C1886      C1894   1.374       .  A
C1887      N1888   1.356       .  A
C1887      H1900   1.063       .  S
N1888      C1889   1.342       .  A
C1889      H1890   1.026       .  S
C1891      N1892   1.356       .  A
C1891      H1901   1.073       .  S
N1892      C1893   1.328       .  A
C1893      H1899   1.083       .  S
C1894      N1895   1.362       .  A
C1894      H1896   1.080       .  S
N1895      C1897   1.338       .  A
C1897      H1898   1.084       .  S
C1902      C1904   1.554       .  S
C1902      C1906   1.509       .  S
C1902      C1905   1.550       .  S
C1902      C1992   1.640       .  S
C1903      C1907   1.514       .  S
C1903      C1909   1.587       .  S
C1903      C1908   1.532       .  S
C1903      C1933   1.699       .  S
C1904      C1912   1.385       .  A
C1904      C1907   1.443       .  A
C1905      C1916   1.367       .  A
C1905      C1908   1.443       .  A
C1906      C1920   1.369       .  A
C1906      C1909   1.450       .  A
C1907      C1910   1.348       .  A
C1908      C1914   1.346       .  A
C1909      C1917   1.329       .  A
C1910      N1911   1.322       .  A
C1910      H1923   1.082       .  S
N1911      C1912   1.355       .  A
C1912      H1913   1.080       .  S
C1914      N1915   1.329       .  A
C1914      H1924   1.084       .  S
N1915      C1916   1.354       .  A
C1916      H1922   1.068       .  S
C1917      N1918   1.361       .  A
C1917      H1919   1.055       .  S
N1918      C1920   1.328       .  A
C1920      H1921   1.074       .  S
O1925     Zr1937   2.518   1_455  S
O1925      C1927   1.301       .  A
O1926      C1927   1.316       .  A
O1928     Zr3988   2.564       .  S
O1928      C1930   1.312       .  A
O1929      C1930   1.320       .  A
O1931     Zr1940   2.578   1_455  S
O1931      C1933   1.318       .  A
O1932      C1933   1.324       .  A
O1934     Zr3985   2.466       .  S
O1934      C1936   1.288       .  A
O1935     Zr1964   2.621       .  S
O1935      C1936   1.327       .  A
Zr1937     O3982   2.468       .  S
Zr1937     O1938   2.418       .  S
Zr1937     O1939   2.431       .  S
Zr1937     O1943   2.407   1_655  S
Zr1937     O3992   2.413       .  S
Zr1937     O4015   2.380       .  S
O1938      H1981   0.990       .  S
O1939      H1980   0.990   1_655  S
O1939      H1984   0.987       .  S
Zr1940     O3976   2.564       .  S
Zr1940     O1941   2.429       .  S
Zr1940     O3990   2.435       .  S
Zr1940     O2968   2.429   1_565  S
Zr1940     O4018   2.388       .  S
O1941      H4030   0.989       .  S
O1941      H1985   0.990   1_655  S
O1942     Zr3988   2.435       .  S
O1942      H4023   0.989       .  S
O1944     Zr3985   2.411       .  S
O1944     Zr2964   2.429       .  S
O1944     Zr1964   2.439       .  S
O1944      H1971   0.966       .  S
O1945     Zr4005   2.577       .  S
O1945      C1947   1.317       .  A
O1946      C1947   1.326       .  A
O1948     Zr1960   2.475   1_455  S
O1948      C1950   1.291       .  A
O1949      C1950   1.325       .  A
O1951     Zr4008   2.504       .  S
O1951      C1953   1.299       .  A
O1952      C1953   1.315       .  A
O1954     Zr1957   2.571   1_455  S
O1954      C1956   1.314       .  A
O1955     Zr1963   2.652   1_556  S
O1955      C1956   1.324       .  A
Zr1957     O3993   2.577       .  S
Zr1957     O1958   2.439   1_655  S
Zr1957     O1959   2.436       .  S
Zr1957     O4013   2.429       .  S
Zr1957     O1966   2.429   1_655  S
Zr1957     O1969   2.394   1_656  S
Zr1957     O3503   2.383   1_556  S
O1958      H4026   0.990   1_455  S
O1958      H4031   0.990       .  S
O1959      H4027   0.990       .  S
Zr1960     O3999   2.509       .  S
Zr1960     O4009   2.420   1_655  S
Zr1960     O1962   2.437       .  S
Zr1960     O2989   2.420   1_565  S
Zr1960     O3506   2.369       .  S
Zr1960     O1968   2.382   1_655  S
O1961     Zr4008   2.424       .  S
O1961      H4025   0.990       .  S
O1962      H4024   0.990       .  S
O1962      H4034   0.987       .  S
Zr1963     O1966   2.440   1_554  S
Zr1963     O1969   2.428       .  S
Zr1964     O1967   2.413       .  S
O1965     Zr4005   2.429       .  S
O1965     Zr2984   2.418       .  S
O1965      H1973   0.966       .  S
O1967     Zr3985   2.377       .  S
O1967     Zr3493   2.382       .  S
O1968      H1972   0.965       .  S
O1969      H1974   0.963       .  S
O1970     Zr3988   2.393       .  S
O1970     Zr3496   2.369       .  S
H1975      O3990   0.989   1_455  S
H1976      O4010   0.990       .  S
H1977      O4009   0.991       .  S
H1978      O4006   0.990       .  S
H1979      O4007   0.990       .  S
H1982      O3989   0.989       .  S
H1983      O4006   0.990       .  S
H1986      O4010   0.987       .  S
O1987     Zr1999   2.526       .  S
O1987      C1989   1.303       .  A
O1988     Zr2025   2.674       .  S
O1988      C1989   1.340       .  A
O1990     Zr2002   2.506       .  S
O1990      C1992   1.299       .  A
O1991     Zr2026   2.638       .  S
O1991      C1992   1.332       .  A
O1993     Zr2002   2.486       .  S
O1993      C1995   1.297       .  A
O1994     Zr2025   2.629       .  S
O1994      C1995   1.330       .  A
O1996     Zr1999   2.494       .  S
O1996      C1998   1.302       .  A
O1997     Zr2026   2.581       .  S
O1997      C1998   1.318       .  A
Zr1999     O2000   2.435       .  S
Zr1999     O2001   2.435       .  S
Zr1999     O2005   2.396       .  S
Zr1999     O2006   2.409       .  S
Zr1999     O2029   2.391       .  S
Zr1999     O2031   2.390       .  S
O2000      H2043   0.990       .  S
O2001      H2042   0.990       .  S
O2001      H2046   0.990       .  S
Zr2002     O2003   2.438       .  S
Zr2002     O2004   2.434       .  S
Zr2002     O2006   2.378       .  S
Zr2002     O2005   2.402       .  S
Zr2002     O2030   2.396       .  S
Zr2002     O2032   2.401       .  S
O2003      H2044   0.988       .  S
O2003      H2047   0.990       .  S
O2004      H2037   0.990       .  S
O2005     Zr2025   2.434       .  S
O2006     Zr2026   2.437       .  S
O2006      H2033   0.964       .  S
O2007     Zr2019   2.494       .  S
O2007      C2009   1.299       .  A
O2008     Zr2026   2.622       .  S
O2008      C2009   1.329       .  A
O2010     Zr2022   2.500       .  S
O2010      C2012   1.304       .  A
O2011     Zr2025   2.574       .  S
O2011      C2012   1.316       .  A
O2013     Zr2022   2.523       .  S
O2013      C2015   1.302       .  A
O2014     Zr2026   2.682       .  S
O2014      C2015   1.342       .  A
O2016     Zr2019   2.504       .  S
O2016      C2018   1.299       .  A
O2017     Zr2025   2.633       .  S
O2017      C2018   1.331       .  A
Zr2019     O2020   2.439       .  S
Zr2019     O2021   2.434       .  S
Zr2019     O2027   2.411       .  S
Zr2019     O2028   2.375       .  S
Zr2019     O2031   2.400       .  S
Zr2019     O2029   2.389       .  S
O2020      H2040   0.988       .  S
O2020      H2045   0.989       .  S
O2021      H2041   0.990       .  S
Zr2022     O2023   2.432       .  S
Zr2022     O2024   2.435       .  S
Zr2022     O2028   2.393       .  S
Zr2022     O2027   2.396       .  S
Zr2022     O2032   2.396       .  S
Zr2022     O2030   2.396       .  S
O2023      H2039   0.989       .  S
O2024      H2038   0.990       .  S
O2024      H2048   0.990       .  S
Zr2025     O2028   2.431       .  S
Zr2025     O2030   2.453       .  S
Zr2025     O2031   2.431       .  S
Zr2026     O2027   2.439       .  S
Zr2026     O2029   2.449       .  S
Zr2026     O2032   2.427       .  S
O2027      H2035   0.965       .  S
O2030      H2034   0.966       .  S
O2031      H2036   0.966       .  S
C2049      C2051   1.586       .  S
C2049      C2053   1.521       .  S
C2049      C2052   1.529       .  S
C2049      C2507   1.622       .  S
C2050      C2054   1.527       .  S
C2050      C2056   1.523       .  S
C2050      C2055   1.562       .  S
C2050      C2439   1.625       .  S
C2051      C2059   1.396       .  A
C2051      C2054   1.442       .  A
C2052      C2063   1.386       .  A
C2052      C2055   1.447       .  A
C2053      C2067   1.353       .  A
C2053      C2056   1.401       .  A
C2054      C2057   1.341       .  A
C2055      C2061   1.336       .  A
C2056      C2064   1.358       .  A
C2057      N2058   1.328       .  A
C2057      H2070   1.068       .  S
N2058      C2059   1.374       .  A
N2058      C2331   1.463       .  S
C2059      H2060   1.076       .  S
C2061      N2062   1.345       .  A
C2061      H2071   1.083       .  S
N2062      C2063   1.346       .  A
N2062      C2149   1.440       .  S
C2063      H2069   1.079       .  S
C2064      N2065   1.352       .  A
C2064      H2066   1.076       .  S
N2065      C2067   1.338       .  A
N2065      C2092   1.398       .  S
C2067      H2068   1.072       .  S
N2072      C2077   1.331       .  A
N2072      H2104   1.041       .  S
N2073      C2080   1.327       .  A
N2073      C2081   1.323       .  A
N2074      C2079   1.344       .  A
N2074      H2105   1.045       .  S
N2075      C2082   1.329       .  A
N2075      C2083   1.333       .  A
C2076      C2084   1.382       .  A
C2076      C2092   1.384       .  A
C2077      C2093   1.379       .  A
C2077      C2085   1.386       .  A
C2078      C2086   1.386       .  A
C2078      C2095   1.401       .  A
C2079      C2094   1.406       .  A
C2079      C2087   1.389       .  A
C2080      C2092   1.398       .  A
C2080      C2088   1.389       .  A
C2081      C2095   1.367       .  A
C2081      C2089   1.383       .  A
C2082      C2090   1.389       .  A
C2082      C2093   1.399       .  A
C2083      C2091   1.383       .  A
C2083      C2094   1.376       .  A
C2084      H2096   1.080       .  S
C2085      H2097   1.083       .  S
C2086      H2098   1.081       .  S
C2087      H2099   1.079       .  S
C2088      C2089   1.377       .  A
C2088      H2100   1.080       .  S
C2089      H2101   1.082       .  S
C2090      C2091   1.376       .  A
C2090      H2102   1.079       .  S
C2091      H2103   1.082       .  S
C2093      N2377   1.395       .  S
C2094      N2115   1.422       .  S
C2095      N2423   1.416       .  S
C2106      C2108   1.503       .  S
C2106      C2110   1.567       .  S
C2106      C2109   1.523       .  S
C2106      C2442   1.687       .  S
C2107      C2111   1.561       .  S
C2107      C2113   1.544       .  S
C2107      C2112   1.541       .  S
C2107      C2527   1.671       .  S
C2108      C2116   1.356       .  A
C2108      C2111   1.435       .  A
C2109      C2120   1.343       .  A
C2109      C2112   1.439       .  A
C2110      C2124   1.318       .  A
C2110      C2113   1.451       .  A
C2111      C2114   1.372       .  A
C2112      C2118   1.363       .  A
C2113      C2121   1.368       .  A
C2114      N2115   1.360       .  A
C2114      H2127   1.078       .  S
N2115      C2116   1.338       .  A
C2116      H2117   1.084       .  S
C2118      N2119   1.354       .  A
C2118      H2128   1.073       .  S
N2119      C2120   1.329       .  A
N2119      C2183   1.427       .  S
C2120      H2126   1.081       .  S
C2121      N2122   1.355       .  A
C2121      H2123   1.064       .  S
N2122      C2124   1.342       .  A
N2122      C2297   1.471       .  S
C2124      H2125   1.026       .  S
N2129      C3158   1.334   1_545  A
N2129      C2133   1.332       .  A
N2129      H2161   1.046       .  S
N2130      C2137   1.343       .  A
N2130      C2138   1.333       .  A
N2131      C3160   1.337   1_545  A
N2131      C2135   1.344       .  A
N2131      H2162   1.045       .  S
N2132      C2139   1.332       .  A
N2132      C2140   1.337       .  A
C2133      C2141   1.372       .  A
C2133      C2149   1.384       .  A
C2134      C2150   1.377       .  A
C2134      C2142   1.367       .  A
C2134      N3153   1.334       .  A
C2135      C2143   1.365       .  A
C2135      C2152   1.393       .  A
C2136      C2151   1.415       .  A
C2136      C2144   1.388       .  A
C2136      N3155   1.338       .  A
C2137      C2149   1.426       .  A
C2137      C2145   1.388       .  A
C2138      C2152   1.422       .  A
C2138      C2146   1.378       .  A
C2139      C2147   1.372       .  A
C2139      C2150   1.421       .  A
C2140      C2148   1.384       .  A
C2140      C2151   1.427       .  A
C2141      C3166   1.374       .  A
C2141      H2153   1.075       .  S
C2142      C3165   1.371       .  A
C2142      H2154   1.070       .  S
C2143      C3168   1.373       .  A
C2143      H2155   1.073       .  S
C2144      C3167   1.372       .  A
C2144      H2156   1.071       .  S
C2145      C2146   1.384       .  A
C2145      H2157   1.070       .  S
C2146      H2158   1.083       .  S
C2147      C2148   1.378       .  A
C2147      H2159   1.077       .  S
C2148      H2160   1.055       .  S
C2150      N2427   1.434       .  S
C2151      N2210   1.455       .  S
C2152      N2404   1.428       .  S
N2163      C2168   1.339   1_565  A
N2163      C3191   1.347       .  A
N2163      H2195   1.045       .  S
N2164      C2171   1.333       .  A
N2164      C2172   1.342       .  A
N2165      C2170   1.334       .  A
N2165      C3193   1.330   1_545  A
N2165      H2196   1.046       .  S
N2166      C2173   1.336       .  A
N2166      C2174   1.331       .  A
C2167      C2175   1.363       .  A
C2167      C2183   1.395       .  A
C2167      N3187   1.346       .  A
C2168      C2184   1.416       .  A
C2168      C2176   1.388       .  A
C2169      C2177   1.374       .  A
C2169      C2186   1.383       .  A
C2169      N3189   1.330       .  A
C2170      C2185   1.377       .  A
C2170      C2178   1.370       .  A
C2171      C2183   1.423       .  A
C2171      C2179   1.377       .  A
C2172      C2186   1.424       .  A
C2172      C2180   1.388       .  A
C2173      C2181   1.386       .  A
C2173      C2184   1.427       .  A
C2174      C2182   1.373       .  A
C2174      C2185   1.420       .  A
C2175      C3200   1.370       .  A
C2175      H2187   1.072       .  S
C2176      C3199   1.371   1_545  A
C2176      H2188   1.069       .  S
C2177      C3202   1.375       .  A
C2177      H2189   1.076       .  S
C2178      C3201   1.374   1_545  A
C2178      H2190   1.075       .  S
C2179      C2180   1.382       .  A
C2179      H2191   1.083       .  S
C2180      H2192   1.071       .  S
C2181      C2182   1.379       .  A
C2181      H2193   1.059       .  S
C2182      H2194   1.078       .  S
C2184      N2381   1.452       .  S
C2185      N2270   1.436       .  S
C2186      N2358   1.442       .  S
C2197      C2199   1.542       .  S
C2197      C2201   1.521       .  S
C2197      C2200   1.551       .  S
C2197      C2462   1.619       .  S
C2198      C2202   1.508       .  S
C2198      C2204   1.536       .  S
C2198      C2203   1.566       .  S
C2198      C2510   1.604       .  S
C2199      C2207   1.357       .  A
C2199      C2202   1.413       .  A
C2200      C2211   1.358       .  A
C2200      C2203   1.449       .  A
C2201      C2215   1.327       .  A
C2201      C2204   1.428       .  A
C2202      C2205   1.352       .  A
C2203      C2209   1.401       .  A
C2204      C2212   1.367       .  A
C2205      N2206   1.335       .  A
C2205      H2218   1.079       .  S
N2206      C2207   1.356       .  A
N2206      C2243   1.395       .  S
C2207      H2208   1.078       .  S
C2209      N2210   1.361       .  A
C2209      H2219   1.072       .  S
N2210      C2211   1.333       .  A
C2211      H2217   1.084       .  S
C2212      N2213   1.347       .  A
C2212      H2214   1.078       .  S
N2213      C2215   1.337       .  A
N2213      C2299   1.427       .  S
C2215      H2216   1.074       .  S
N2220      C2225   1.345   1_455  A
N2220      H2252   1.045   1_455  S
N2221      C2228   1.335       .  A
N2221      C2229   1.327       .  A
N2222      C2227   1.334       .  A
N2222      H2253   1.041       .  S
N2223      C2230   1.323       .  A
N2223      C2231   1.327       .  A
C2224      C2232   1.388       .  A
C2224      C2240   1.400       .  A
C2225      C2241   1.399       .  A
C2225      C2233   1.386       .  A
C2226      C2234   1.385       .  A
C2226      C2243   1.381       .  A
C2227      C2242   1.385       .  A
C2227      C2235   1.382       .  A
C2228      C2240   1.372       .  A
C2228      C2236   1.380       .  A
C2229      C2243   1.399       .  A
C2229      C2237   1.391       .  A
C2230      C2238   1.382       .  A
C2230      C2241   1.367       .  A
C2231      C2239   1.389       .  A
C2231      C2242   1.397       .  A
C2232      H2244   1.081       .  S
C2233      H2245   1.082       .  S
C2234      H2246   1.083       .  S
C2235      H2247   1.080       .  S
C2236      C2237   1.373       .  A
C2236      H2248   1.083       .  S
C2237      H2249   1.078       .  S
C2238      C2239   1.377       .  A
C2238      H2250   1.082       .  S
C2239      H2251   1.080       .  S
C2240      N2407   1.420       .  S
C2241      N2263   1.413       .  S
C2242      N2354   1.399       .  S
C2254      C2256   1.553       .  S
C2254      C2258   1.548       .  S
C2254      C2257   1.508       .  S
C2254      C2530   1.639       .  S
C2255      C2259   1.513       .  S
C2255      C2261   1.531       .  S
C2255      C2260   1.588       .  S
C2255      C2459   1.696       .  S
C2256      C2264   1.381       .  A
C2256      C2259   1.442       .  A
C2257      C2268   1.370       .  A
C2257      C2260   1.450       .  A
C2258      C2272   1.365       .  A
C2258      C2261   1.442       .  A
C2259      C2262   1.351       .  A
C2260      C2266   1.327       .  A
C2261      C2269   1.345       .  A
C2262      N2263   1.323       .  A
C2262      H2275   1.083       .  S
N2263      C2264   1.354       .  A
C2264      H2265   1.080       .  S
C2266      N2267   1.361       .  A
C2266      H2276   1.053       .  S
N2267      C2268   1.327       .  A
N2267      C2333   1.457       .  S
C2268      H2274   1.074       .  S
C2269      N2270   1.328       .  A
C2269      H2271   1.084       .  S
N2270      C2272   1.354       .  A
C2272      H2273   1.068       .  S
N2277      C2794   1.340   1_554  A
N2277      C2281   1.349       .  A
N2277      H2309   1.016       .  S
N2278      C2285   1.327       .  A
N2278      C2286   1.341       .  A
N2279      C2796   1.316   1_554  A
N2279      C2283   1.332       .  A
N2279      H2310   1.048       .  S
N2280      C2287   1.311       .  A
N2280      C2288   1.331       .  A
C2281      C2289   1.374       .  A
C2281      C2297   1.407       .  A
C2282      C2298   1.430       .  A
C2282      C2290   1.372       .  A
C2282      N2789   1.342       .  A
C2283      C2291   1.372       .  A
C2283      C2300   1.353       .  A
C2284      C2299   1.360       .  A
C2284      C2292   1.358       .  A
C2284      N2791   1.316       .  A
C2285      C2297   1.414       .  A
C2285      C2293   1.389       .  A
C2286      C2300   1.417       .  A
C2286      C2294   1.379       .  A
C2287      C2295   1.390       .  A
C2287      C2298   1.394       .  A
C2288      C2296   1.377       .  A
C2288      C2299   1.393       .  A
C2289      C2802   1.391       .  A
C2289      H2301   1.082       .  S
C2290      C2801   1.392       .  A
C2290      H2302   1.066       .  S
C2291      C2804   1.368       .  A
C2291      H2303   1.082       .  S
C2292      C2803   1.370       .  A
C2292      H2304   1.069       .  S
C2293      C2294   1.388       .  A
C2293      H2305   1.081       .  S
C2294      H2306   1.077       .  S
C2295      C2296   1.380       .  A
C2295      H2307   1.069       .  S
C2296      H2308   1.080       .  S
C2298      N2361   1.464       .  S
C2300      N2430   1.455       .  S
N2311      C2828   1.349       .  A
N2311      C2315   1.340   1_556  A
N2311      H2343   1.037       .  S
N2312      C2319   1.313       .  A
N2312      C2320   1.334       .  A
N2313      C2830   1.332       .  A
N2313      C2317   1.316   1_556  A
N2313      H2344   1.047       .  S
N2314      C2321   1.327       .  A
N2314      C2322   1.340       .  A
C2315      C2323   1.371   1_554  A
C2315      C2331   1.428       .  A
C2316      C2332   1.406       .  A
C2316      C2324   1.373       .  A
C2316      N2823   1.349       .  A
C2317      C2325   1.359   1_554  A
C2317      C2334   1.362       .  A
C2318      C2333   1.355       .  A
C2318      C2326   1.371       .  A
C2318      N2825   1.334       .  A
C2319      C2331   1.395       .  A
C2319      C2327   1.390       .  A
C2320      C2334   1.396       .  A
C2320      C2328   1.378       .  A
C2321      C2329   1.388       .  A
C2321      C2332   1.413       .  A
C2322      C2330   1.380       .  A
C2322      C2333   1.417       .  A
C2323      C2836   1.392       .  A
C2323      H2335   1.066   1_556  S
C2324      C2835   1.391       .  A
C2324      H2336   1.082       .  S
C2325      C2838   1.368       .  A
C2325      H2337   1.068   1_556  S
C2326      C2837   1.370       .  A
C2326      H2338   1.082       .  S
C2327      C2328   1.381       .  A
C2327      H2339   1.071       .  S
C2328      H2340   1.080       .  S
C2329      C2330   1.389       .  A
C2329      H2341   1.082       .  S
C2330      H2342   1.077       .  S
C2332      N2400   1.473       .  S
C2334      N2384   1.428       .  S
C2345      C2347   1.521       .  S
C2345      C2349   1.584       .  S
C2345      C2348   1.532       .  S
C2345      C2521   1.627       .  S
C2346      C2350   1.522       .  S
C2346      C2352   1.529       .  S
C2346      C2351   1.562       .  S
C2346      C2465   1.627       .  S
C2347      C2355   1.354       .  A
C2347      C2350   1.401       .  A
C2348      C2359   1.383       .  A
C2348      C2351   1.447       .  A
C2349      C2363   1.395       .  A
C2349      C2352   1.444       .  A
C2350      C2353   1.358       .  A
C2351      C2357   1.338       .  A
C2352      C2360   1.342       .  A
C2353      N2354   1.350       .  A
C2353      H2366   1.074       .  S
N2354      C2355   1.339       .  A
C2355      H2356   1.070       .  S
C2357      N2358   1.347       .  A
C2357      H2367   1.083       .  S
N2358      C2359   1.346       .  A
C2359      H2365   1.079       .  S
C2360      N2361   1.328       .  A
C2360      H2362   1.067       .  S
N2361      C2363   1.373       .  A
C2363      H2364   1.076       .  S
C2368      C2370   1.509       .  S
C2368      C2372   1.534       .  S
C2368      C2371   1.560       .  S
C2368      C2524   1.601       .  S
C2369      C2373   1.540       .  S
C2369      C2375   1.524       .  S
C2369      C2374   1.554       .  S
C2369      C2448   1.626       .  S
C2370      C2378   1.353       .  A
C2370      C2373   1.413       .  A
C2371      C2382   1.396       .  A
C2371      C2374   1.450       .  A
C2372      C2386   1.371       .  A
C2372      C2375   1.430       .  A
C2373      C2376   1.358       .  A
C2374      C2380   1.354       .  A
C2375      C2383   1.325       .  A
C2376      N2377   1.353       .  A
C2376      H2389   1.076       .  S
N2377      C2378   1.332       .  A
C2378      H2379   1.079       .  S
C2380      N2381   1.336       .  A
C2380      H2390   1.084       .  S
N2381      C2382   1.359       .  A
C2382      H2388   1.074       .  S
C2383      N2384   1.338       .  A
C2383      H2385   1.073       .  S
N2384      C2386   1.346       .  A
C2386      H2387   1.078       .  S
C2391      C2393   1.570       .  S
C2391      C2395   1.501       .  S
C2391      C2394   1.525       .  S
C2391      C2468   1.685       .  S
C2392      C2396   1.543       .  S
C2392      C2398   1.556       .  S
C2392      C2397   1.545       .  S
C2392      C2501   1.667       .  S
C2393      C2401   1.321       .  A
C2393      C2396   1.451       .  A
C2394      C2405   1.342       .  A
C2394      C2397   1.441       .  A
C2395      C2409   1.354       .  A
C2395      C2398   1.432       .  A
C2396      C2399   1.370       .  A
C2397      C2403   1.365       .  A
C2398      C2406   1.370       .  A
C2399      N2400   1.354       .  A
C2399      H2412   1.064       .  S
N2400      C2401   1.342       .  A
C2401      H2402   1.024       .  S
C2403      N2404   1.355       .  A
C2403      H2413   1.072       .  S
N2404      C2405   1.328       .  A
C2405      H2411   1.083       .  S
C2406      N2407   1.359       .  A
C2406      H2408   1.080       .  S
N2407      C2409   1.337       .  A
C2409      H2410   1.084       .  S
C2414      C2416   1.554       .  S
C2414      C2418   1.506       .  S
C2414      C2417   1.548       .  S
C2414      C2504   1.640       .  S
C2415      C2419   1.516       .  S
C2415      C2421   1.587       .  S
C2415      C2420   1.534       .  S
C2415      C2445   1.700       .  S
C2416      C2424   1.382       .  A
C2416      C2419   1.445       .  A
C2417      C2428   1.369       .  A
C2417      C2420   1.443       .  A
C2418      C2432   1.369       .  A
C2418      C2421   1.449       .  A
C2419      C2422   1.351       .  A
C2420      C2426   1.346       .  A
C2421      C2429   1.327       .  A
C2422      N2423   1.323       .  A
C2422      H2435   1.081       .  S
N2423      C2424   1.355       .  A
C2424      H2425   1.079       .  S
C2426      N2427   1.330       .  A
C2426      H2436   1.084       .  S
N2427      C2428   1.354       .  A
C2428      H2434   1.069       .  S
C2429      N2430   1.361       .  A
C2429      H2431   1.054       .  S
N2430      C2432   1.326       .  A
C2432      H2433   1.074       .  S
O2437     Zr2449   2.505       .  S
O2437      C2439   1.299       .  A
O2438     Zr2987   2.585       .  S
O2438      C2439   1.316       .  A
O2440      C2442   1.314       .  A
O2441     Zr3500   2.650       .  S
O2441      C2442   1.323       .  A
O2443     Zr2452   2.573       .  S
O2443      C2445   1.316       .  A
O2444     Zr4011   2.646       .  S
O2444      C2445   1.326       .  A
O2446      C2448   1.290       .  A
O2447     Zr2476   2.619       .  S
O2447      C2448   1.326       .  A
Zr2449     O2450   2.420       .  S
Zr2449     O2451   2.440       .  S
Zr2449     O2455   2.413       .  S
Zr2449     O2993   2.369       .  S
O2450      H2493   0.991       .  S
O2451      H2492   0.990       .  S
O2451      H2496   0.987       .  S
Zr2452     O2453   2.430       .  S
Zr2452     O3479   2.424       .  S
Zr2452     O2992   2.385   1_554  S
O2453      H2497   0.990       .  S
O2455     Zr3476   2.425   1_545  S
O2455     Zr2987   2.440       .  S
O2456     Zr2476   2.440       .  S
O2456      H2483   0.968       .  S
O2457      C2459   1.317       .  A
O2458     Zr2988   2.634       .  S
O2458      C2459   1.324       .  A
O2460     Zr2472   2.475       .  S
O2460      C2462   1.290       .  A
O2461     Zr3499   2.613       .  S
O2461      C2462   1.326       .  A
O2463      C2465   1.299       .  A
O2464     Zr4012   2.577       .  S
O2464      C2465   1.314       .  A
O2466     Zr2469   2.575       .  S
O2466      C2468   1.315       .  A
O2467     Zr2475   2.645       .  S
O2467      C2468   1.321       .  A
Zr2469     O2470   2.430       .  S
Zr2469     O2471   2.436       .  S
Zr2469     O2478   2.430       .  S
Zr2469     O2481   2.390       .  S
Zr2472     O2474   2.431       .  S
Zr2472     O3502   2.406       .  S
Zr2472     O2480   2.381       .  S
Zr2475     O2950   2.585       .  S
Zr2475     O3980   2.641   1_545  S
Zr2475     O3485   2.617   1_545  S
Zr2475     O2967   2.441       .  S
Zr2475     O2478   2.439       .  S
Zr2475     O3504   2.421   1_545  S
Zr2475     O2481   2.428       .  S
Zr2476     O3465   2.642   1_545  S
Zr2476     O2970   2.638   1_554  S
Zr2476     O4000   2.584   1_544  S
Zr2476     O2989   2.445   1_554  S
Zr2476     O2479   2.416       .  S
Zr2476     O3506   2.420   1_544  S
O2477     Zr2988   2.447       .  S
O2477      H2485   0.966       .  S
O2478     Zr3496   2.412   1_545  S
O2480     Zr2964   2.381       .  S
O2480     Zr3499   2.422       .  S
O2480      H2484   0.965       .  S
O2481     Zr2961   2.376       .  S
O2481      H2486   0.964       .  S
O2482     Zr3500   2.421   1_556  S
O2499     Zr2511   2.530       .  S
O2499      C2501   1.304       .  A
O2500     Zr2537   2.666       .  S
O2500      C2501   1.338       .  A
O2502     Zr2514   2.507       .  S
O2502      C2504   1.300       .  A
O2503     Zr2538   2.640       .  S
O2503      C2504   1.333       .  A
O2505     Zr2514   2.486       .  S
O2505      C2507   1.298       .  A
O2506     Zr2537   2.628       .  S
O2506      C2507   1.330       .  A
O2508     Zr2511   2.503       .  S
O2508      C2510   1.304       .  A
O2509     Zr2538   2.578       .  S
O2509      C2510   1.317       .  A
Zr2511     O2512   2.437       .  S
Zr2511     O2513   2.435       .  S
Zr2511     O2517   2.395       .  S
Zr2511     O2518   2.406       .  S
Zr2511     O2541   2.394       .  S
Zr2511     O2543   2.391       .  S
O2512      H2555   0.990       .  S
O2513      H2554   0.990       .  S
O2513      H2558   0.990       .  S
Zr2514     O2515   2.438       .  S
Zr2514     O2516   2.433       .  S
Zr2514     O2518   2.379       .  S
Zr2514     O2517   2.407       .  S
Zr2514     O2542   2.394       .  S
Zr2514     O2544   2.399       .  S
O2515      H2556   0.989       .  S
O2515      H2559   0.989       .  S
O2516      H2549   0.990       .  S
O2517     Zr2537   2.435       .  S
O2518     Zr2538   2.437       .  S
O2518      H2545   0.965       .  S
O2519     Zr2531   2.493       .  S
O2519      C2521   1.299       .  A
O2520     Zr2538   2.629       .  S
O2520      C2521   1.331       .  A
O2522     Zr2534   2.503       .  S
O2522      C2524   1.304       .  A
O2523     Zr2537   2.567       .  S
O2523      C2524   1.315       .  A
O2525     Zr2534   2.524       .  S
O2525      C2527   1.302       .  A
O2526     Zr2538   2.680       .  S
O2526      C2527   1.341       .  A
O2528     Zr2531   2.502       .  S
O2528      C2530   1.299       .  A
O2529     Zr2537   2.639       .  S
O2529      C2530   1.332       .  A
Zr2531     O2532   2.439       .  S
Zr2531     O2533   2.435       .  S
Zr2531     O2539   2.411       .  S
Zr2531     O2540   2.375       .  S
Zr2531     O2543   2.398       .  S
Zr2531     O2541   2.390       .  S
O2532      H2552   0.988       .  S
O2532      H2557   0.989       .  S
O2533      H2553   0.990       .  S
Zr2534     O2535   2.432       .  S
Zr2534     O2536   2.437       .  S
Zr2534     O2540   2.398       .  S
Zr2534     O2539   2.398       .  S
Zr2534     O2544   2.396       .  S
Zr2534     O2542   2.394       .  S
O2535      H2551   0.988       .  S
O2536      H2550   0.990       .  S
O2536      H2560   0.990       .  S
Zr2537     O2540   2.432       .  S
Zr2537     O2542   2.451       .  S
Zr2537     O2543   2.427       .  S
Zr2538     O2539   2.439       .  S
Zr2538     O2541   2.449       .  S
Zr2538     O2544   2.426       .  S
O2539      H2547   0.965       .  S
O2542      H2546   0.965       .  S
O2543      H2548   0.966       .  S
C2561      C2563   1.586       .  S
C2561      C2565   1.522       .  S
C2561      C2564   1.529       .  S
C2561      C3019   1.624       .  S
C2562      C2566   1.527       .  S
C2562      C2568   1.522       .  S
C2562      C2567   1.562       .  S
C2562      C2951   1.628       .  S
C2563      C2571   1.396       .  A
C2563      C2566   1.444       .  A
C2564      C2575   1.385       .  A
C2564      C2567   1.446       .  A
C2565      C2579   1.354       .  A
C2565      C2568   1.402       .  A
C2566      C2569   1.339       .  A
C2567      C2573   1.336       .  A
C2568      C2576   1.355       .  A
C2569      N2570   1.329       .  A
C2569      H2582   1.068       .  S
N2570      C2571   1.372       .  A
N2570      C2843   1.464       .  S
C2571      H2572   1.076       .  S
C2573      N2574   1.346       .  A
C2573      H2583   1.083       .  S
N2574      C2575   1.346       .  A
N2574      C2661   1.441       .  S
C2575      H2581   1.079       .  S
C2576      N2577   1.348       .  A
C2576      H2578   1.072       .  S
N2577      C2579   1.338       .  A
N2577      C2604   1.398       .  S
C2579      H2580   1.069       .  S
N2584      C2589   1.331       .  A
N2584      H2616   1.041       .  S
N2585      C2592   1.328       .  A
N2585      C2593   1.322       .  A
N2586      C2591   1.347       .  A
N2586      H2617   1.045       .  S
N2587      C2594   1.328       .  A
N2587      C2595   1.334       .  A
C2588      C2596   1.382       .  A
C2588      C2604   1.385       .  A
C2589      C2605   1.379       .  A
C2589      C2597   1.385       .  A
C2590      C2598   1.385       .  A
C2590      C2607   1.401       .  A
C2591      C2606   1.407       .  A
C2591      C2599   1.387       .  A
C2592      C2604   1.397       .  A
C2592      C2600   1.388       .  A
C2593      C2607   1.369       .  A
C2593      C2601   1.384       .  A
C2594      C2602   1.390       .  A
C2594      C2605   1.399       .  A
C2595      C2603   1.381       .  A
C2595      C2606   1.373       .  A
C2596      H2608   1.080       .  S
C2597      H2609   1.083       .  S
C2598      H2610   1.082       .  S
C2599      H2611   1.079       .  S
C2600      C2601   1.377       .  A
C2600      H2612   1.080       .  S
C2601      H2613   1.083       .  S
C2602      C2603   1.373       .  A
C2602      H2614   1.078       .  S
C2603      H2615   1.083       .  S
C2605      N2889   1.394       .  S
C2606      N2627   1.424       .  S
C2607      N2935   1.415       .  S
C2618      C2620   1.503       .  S
C2618      C2622   1.566       .  S
C2618      C2621   1.522       .  S
C2618      C2954   1.689       .  S
C2619      C2623   1.563       .  S
C2619      C2625   1.543       .  S
C2619      C2624   1.540       .  S
C2619      C3039   1.668       .  S
C2620      C2628   1.354       .  A
C2620      C2623   1.433       .  A
C2621      C2632   1.342       .  A
C2621      C2624   1.440       .  A
C2622      C2636   1.316       .  A
C2622      C2625   1.450       .  A
C2623      C2626   1.373       .  A
C2624      C2630   1.361       .  A
C2625      C2633   1.369       .  A
C2626      N2627   1.362       .  A
C2626      H2639   1.079       .  S
N2627      C2628   1.338       .  A
C2628      H2629   1.084       .  S
C2630      N2631   1.354       .  A
C2630      H2640   1.072       .  S
N2631      C2632   1.328       .  A
N2631      C2695   1.425       .  S
C2632      H2638   1.081       .  S
C2633      N2634   1.355       .  A
C2633      H2635   1.064       .  S
N2634      C2636   1.343       .  A
N2634      C2809   1.471       .  S
C2636      H2637   1.024       .  S
N2641      C3670   1.332   1_545  A
N2641      C2645   1.330       .  A
N2641      H2673   1.046       .  S
N2642      C2649   1.343       .  A
N2642      C2650   1.332       .  A
N2643      C3672   1.341   1_545  A
N2643      C2647   1.347       .  A
N2643      H2674   1.045       .  S
N2644      C2651   1.331       .  A
N2644      C2652   1.337       .  A
C2645      C2653   1.374       .  A
C2645      C2661   1.380       .  A
C2646      C2662   1.375       .  A
C2646      C2654   1.368       .  A
C2646      N3665   1.334       .  A
C2647      C2655   1.362       .  A
C2647      C2664   1.396       .  A
C2648      C2663   1.417       .  A
C2648      C2656   1.389       .  A
C2648      N3667   1.341       .  A
C2649      C2661   1.423       .  A
C2649      C2657   1.387       .  A
C2650      C2664   1.422       .  A
C2650      C2658   1.379       .  A
C2651      C2659   1.373       .  A
C2651      C2662   1.421       .  A
C2652      C2660   1.385       .  A
C2652      C2663   1.429       .  A
C2653      C3678   1.373       .  A
C2653      H2665   1.078       .  S
C2654      C3677   1.371       .  A
C2654      H2666   1.070       .  S
C2655      C3680   1.370       .  A
C2655      H2667   1.069       .  S
C2656      C3679   1.371       .  A
C2656      H2668   1.071       .  S
C2657      C2658   1.384       .  A
C2657      H2669   1.071       .  S
C2658      H2670   1.083       .  S
C2659      C2660   1.378       .  A
C2659      H2671   1.075       .  S
C2660      H2672   1.059       .  S
C2662      N2939   1.434       .  S
C2663      N2722   1.455       .  S
C2664      N2916   1.425       .  S
N2675      C2680   1.340   1_565  A
N2675      C3703   1.348       .  A
N2675      H2707   1.045       .  S
N2676      C2683   1.334       .  A
N2676      C2684   1.342       .  A
N2677      C2682   1.333       .  A
N2677      C3705   1.331   1_545  A
N2677      H2708   1.046       .  S
N2678      C2685   1.335       .  A
N2678      C2686   1.332       .  A
C2679      C2687   1.362       .  A
C2679      C2695   1.394       .  A
C2679      N3699   1.348       .  A
C2680      C2696   1.417       .  A
C2680      C2688   1.387       .  A
C2681      C2689   1.375       .  A
C2681      C2698   1.384       .  A
C2681      N3701   1.330       .  A
C2682      C2697   1.377       .  A
C2682      C2690   1.371       .  A
C2683      C2695   1.422       .  A
C2683      C2691   1.376       .  A
C2684      C2698   1.424       .  A
C2684      C2692   1.389       .  A
C2685      C2693   1.385       .  A
C2685      C2696   1.427       .  A
C2686      C2694   1.373       .  A
C2686      C2697   1.419       .  A
C2687      C3712   1.369       .  A
C2687      H2699   1.075       .  S
C2688      C3711   1.371   1_545  A
C2688      H2700   1.067       .  S
C2689      C3714   1.376       .  A
C2689      H2701   1.076       .  S
C2690      C3713   1.373   1_545  A
C2690      H2702   1.073       .  S
C2691      C2692   1.381       .  A
C2691      H2703   1.083       .  S
C2692      H2704   1.071       .  S
C2693      C2694   1.379       .  A
C2693      H2705   1.057       .  S
C2694      H2706   1.078       .  S
C2696      N2893   1.454       .  S
C2697      N2782   1.436       .  S
C2698      N2870   1.444       .  S
C2709      C2711   1.539       .  S
C2709      C2713   1.520       .  S
C2709      C2712   1.552       .  S
C2709      C2974   1.617       .  S
C2710      C2714   1.510       .  S
C2710      C2716   1.536       .  S
C2710      C2715   1.561       .  S
C2710      C3022   1.603       .  S
C2711      C2719   1.356       .  A
C2711      C2714   1.415       .  A
C2712      C2723   1.358       .  A
C2712      C2715   1.449       .  A
C2713      C2727   1.326       .  A
C2713      C2716   1.427       .  A
C2714      C2717   1.349       .  A
C2715      C2721   1.400       .  A
C2716      C2724   1.367       .  A
C2717      N2718   1.333       .  A
C2717      H2730   1.078       .  S
N2718      C2719   1.354       .  A
N2718      C2755   1.392       .  S
C2719      H2720   1.080       .  S
C2721      N2722   1.360       .  A
C2721      H2731   1.073       .  S
N2722      C2723   1.335       .  A
C2723      H2729   1.084       .  S
C2724      N2725   1.347       .  A
C2724      H2726   1.078       .  S
N2725      C2727   1.337       .  A
N2725      C2811   1.425       .  S
C2727      H2728   1.074       .  S
N2732      C2737   1.345   1_455  A
N2732      H2764   1.045   1_455  S
N2733      C2740   1.335       .  A
N2733      C2741   1.328       .  A
N2734      C2739   1.334       .  A
N2734      H2765   1.040       .  S
N2735      C2742   1.323       .  A
N2735      C2743   1.326       .  A
C2736      C2744   1.389       .  A
C2736      C2752   1.405       .  A
C2737      C2753   1.400       .  A
C2737      C2745   1.386       .  A
C2738      C2746   1.387       .  A
C2738      C2755   1.379       .  A
C2739      C2754   1.387       .  A
C2739      C2747   1.382       .  A
C2740      C2752   1.374       .  A
C2740      C2748   1.381       .  A
C2741      C2755   1.400       .  A
C2741      C2749   1.390       .  A
C2742      C2750   1.382       .  A
C2742      C2753   1.366       .  A
C2743      C2751   1.390       .  A
C2743      C2754   1.396       .  A
C2744      H2756   1.079       .  S
C2745      H2757   1.082       .  S
C2746      H2758   1.083       .  S
C2747      H2759   1.077       .  S
C2748      C2749   1.374       .  A
C2748      H2760   1.083       .  S
C2749      H2761   1.078       .  S
C2750      C2751   1.377       .  A
C2750      H2762   1.082       .  S
C2751      H2763   1.080       .  S
C2752      N2919   1.424       .  S
C2753      N2775   1.413       .  S
C2754      N2866   1.397       .  S
C2766      C2768   1.553       .  S
C2766      C2770   1.550       .  S
C2766      C2769   1.511       .  S
C2766      C3042   1.643       .  S
C2767      C2771   1.514       .  S
C2767      C2773   1.533       .  S
C2767      C2772   1.587       .  S
C2767      C2971   1.699       .  S
C2768      C2776   1.382       .  A
C2768      C2771   1.444       .  A
C2769      C2780   1.369       .  A
C2769      C2772   1.450       .  A
C2770      C2784   1.370       .  A
C2770      C2773   1.443       .  A
C2771      C2774   1.349       .  A
C2772      C2778   1.329       .  A
C2773      C2781   1.346       .  A
C2774      N2775   1.323       .  A
C2774      H2787   1.083       .  S
N2775      C2776   1.354       .  A
C2776      H2777   1.079       .  S
C2778      N2779   1.360       .  A
C2778      H2788   1.056       .  S
N2779      C2780   1.328       .  A
N2779      C2845   1.455       .  S
C2780      H2786   1.075       .  S
C2781      N2782   1.329       .  A
C2781      H2783   1.084       .  S
N2782      C2784   1.355       .  A
C2784      H2785   1.070       .  S
N2789      C2793   1.350       .  A
N2789      H2821   1.016       .  S
N2790      C2797   1.327       .  A
N2790      C2798   1.341       .  A
N2791      C2795   1.331       .  A
N2791      H2822   1.048       .  S
N2792      C2799   1.311       .  A
N2792      C2800   1.331       .  A
C2793      C2801   1.375       .  A
C2793      C2809   1.408       .  A
C2794      C2810   1.428       .  A
C2794      C2802   1.372   1_556  A
C2795      C2803   1.371       .  A
C2795      C2812   1.354       .  A
C2796      C2811   1.359       .  A
C2796      C2804   1.358   1_556  A
C2797      C2809   1.414       .  A
C2797      C2805   1.389       .  A
C2798      C2812   1.416       .  A
C2798      C2806   1.379       .  A
C2799      C2807   1.391       .  A
C2799      C2810   1.396       .  A
C2800      C2808   1.377       .  A
C2800      C2811   1.393       .  A
C2801      H2813   1.082       .  S
C2802      H2814   1.066   1_554  S
C2803      H2815   1.081       .  S
C2804      H2816   1.069   1_554  S
C2805      C2806   1.389       .  A
C2805      H2817   1.082       .  S
C2806      H2818   1.077       .  S
C2807      C2808   1.380       .  A
C2807      H2819   1.068       .  S
C2808      H2820   1.079       .  S
C2810      N2873   1.461       .  S
C2812      N2942   1.458       .  S
N2823      C2827   1.341       .  A
N2823      H2855   1.007       .  S
N2824      C2831   1.313       .  A
N2824      C2832   1.332       .  A
N2825      C2829   1.317       .  A
N2825      H2856   1.049       .  S
N2826      C2833   1.327       .  A
N2826      C2834   1.340       .  A
C2827      C2835   1.371       .  A
C2827      C2843   1.427       .  A
C2828      C2844   1.408       .  A
C2828      C2836   1.373       .  A
C2829      C2837   1.358       .  A
C2829      C2846   1.363       .  A
C2830      C2845   1.354       .  A
C2830      C2838   1.371       .  A
C2831      C2843   1.396       .  A
C2831      C2839   1.390       .  A
C2832      C2846   1.394       .  A
C2832      C2840   1.377       .  A
C2833      C2841   1.389       .  A
C2833      C2844   1.413       .  A
C2834      C2842   1.379       .  A
C2834      C2845   1.414       .  A
C2835      H2847   1.065       .  S
C2836      H2848   1.081       .  S
C2837      H2849   1.068       .  S
C2838      H2850   1.081       .  S
C2839      C2840   1.380       .  A
C2839      H2851   1.069       .  S
C2840      H2852   1.080       .  S
C2841      C2842   1.389       .  A
C2841      H2853   1.083       .  S
C2842      H2854   1.077       .  S
C2844      N2912   1.471       .  S
C2846      N2896   1.429       .  S
C2857      C2859   1.520       .  S
C2857      C2861   1.583       .  S
C2857      C2860   1.534       .  S
C2857      C3033   1.630       .  S
C2858      C2862   1.520       .  S
C2858      C2864   1.527       .  S
C2858      C2863   1.563       .  S
C2858      C2977   1.627       .  S
C2859      C2867   1.351       .  A
C2859      C2862   1.403       .  A
C2860      C2871   1.383       .  A
C2860      C2863   1.447       .  A
C2861      C2875   1.393       .  A
C2861      C2864   1.443       .  A
C2862      C2865   1.358       .  A
C2863      C2869   1.339       .  A
C2864      C2872   1.339       .  A
C2865      N2866   1.349       .  A
C2865      H2878   1.076       .  S
N2866      C2867   1.338       .  A
C2867      H2868   1.068       .  S
C2869      N2870   1.347       .  A
C2869      H2879   1.083       .  S
N2870      C2871   1.347       .  A
C2871      H2877   1.079       .  S
C2872      N2873   1.328       .  A
C2872      H2874   1.067       .  S
N2873      C2875   1.372       .  A
C2875      H2876   1.076       .  S
C2880      C2882   1.510       .  S
C2880      C2884   1.538       .  S
C2880      C2883   1.566       .  S
C2880      C3036   1.607       .  S
C2881      C2885   1.539       .  S
C2881      C2887   1.522       .  S
C2881      C2886   1.550       .  S
C2881      C2960   1.620       .  S
C2882      C2890   1.352       .  A
C2882      C2885   1.412       .  A
C2883      C2894   1.400       .  A
C2883      C2886   1.451       .  A
C2884      C2898   1.370       .  A
C2884      C2887   1.428       .  A
C2885      C2888   1.355       .  A
C2886      C2892   1.358       .  A
C2887      C2895   1.327       .  A
C2888      N2889   1.354       .  A
C2888      H2901   1.076       .  S
N2889      C2890   1.335       .  A
C2890      H2891   1.080       .  S
C2892      N2893   1.334       .  A
C2892      H2902   1.084       .  S
N2893      C2894   1.360       .  A
C2894      H2900   1.074       .  S
C2895      N2896   1.337       .  A
C2895      H2897   1.073       .  S
N2896      C2898   1.348       .  A
C2898      H2899   1.078       .  S
C2903      C2905   1.566       .  S
C2903      C2907   1.501       .  S
C2903      C2906   1.522       .  S
C2903      C2980   1.681       .  S
C2904      C2908   1.541       .  S
C2904      C2910   1.564       .  S
C2904      C2909   1.544       .  S
C2904      C3013   1.668       .  S
C2905      C2913   1.317       .  A
C2905      C2908   1.449       .  A
C2906      C2917   1.346       .  A
C2906      C2909   1.438       .  A
C2907      C2921   1.356       .  A
C2907      C2910   1.434       .  A
C2908      C2911   1.366       .  A
C2909      C2915   1.365       .  A
C2910      C2918   1.374       .  A
C2911      N2912   1.355       .  A
C2911      H2924   1.064       .  S
N2912      C2913   1.343       .  A
C2913      H2914   1.027       .  S
C2915      N2916   1.355       .  A
C2915      H2925   1.073       .  S
N2916      C2917   1.329       .  A
C2917      H2923   1.083       .  S
C2918      N2919   1.361       .  A
C2918      H2920   1.078       .  S
N2919      C2921   1.338       .  A
C2921      H2922   1.084       .  S
C2926      C2928   1.556       .  S
C2926      C2930   1.506       .  S
C2926      C2929   1.547       .  S
C2926      C3016   1.638       .  S
C2927      C2931   1.511       .  S
C2927      C2933   1.591       .  S
C2927      C2932   1.533       .  S
C2927      C2957   1.701       .  S
C2928      C2936   1.383       .  A
C2928      C2931   1.442       .  A
C2929      C2940   1.366       .  A
C2929      C2932   1.444       .  A
C2930      C2944   1.371       .  A
C2930      C2933   1.450       .  A
C2931      C2934   1.347       .  A
C2932      C2938   1.344       .  A
C2933      C2941   1.330       .  A
C2934      N2935   1.321       .  A
C2934      H2947   1.082       .  S
N2935      C2936   1.355       .  A
C2936      H2937   1.078       .  S
C2938      N2939   1.330       .  A
C2938      H2948   1.084       .  S
N2939      C2940   1.352       .  A
C2940      H2946   1.069       .  S
C2941      N2942   1.362       .  A
C2941      H2943   1.054       .  S
N2942      C2944   1.326       .  A
C2944      H2945   1.075       .  S
O2949     Zr2961   2.510       .  S
O2949      C2951   1.299       .  A
O2950      C2951   1.316       .  A
O2952      C2954   1.314       .  A
O2953     Zr4012   2.657       .  S
O2953      C2954   1.325       .  A
O2955     Zr2964   2.578       .  S
O2955      C2957   1.318       .  A
O2956     Zr3499   2.634       .  S
O2956      C2957   1.322       .  A
O2958      C2960   1.289       .  A
O2959     Zr2988   2.611       .  S
O2959      C2960   1.325       .  A
Zr2961     O2962   2.419       .  S
Zr2961     O2963   2.430       .  S
Zr2961     O2967   2.412       .  S
O2962      H3005   0.990       .  S
O2963      H3004   0.990       .  S
O2963      H3008   0.987       .  S
Zr2964     O2965   2.424       .  S
Zr2964     O3991   2.423       .  S
O2965      H3009   0.990       .  S
O2967     Zr3988   2.427   1_545  S
O2968     Zr2988   2.438       .  S
O2968      H2995   0.967       .  S
O2969      C2971   1.318       .  A
O2970      C2971   1.325       .  A
O2972     Zr2984   2.468       .  S
O2972      C2974   1.289       .  A
O2973     Zr4011   2.615   1_556  S
O2973      C2974   1.326       .  A
O2975      C2977   1.300       .  A
O2976     Zr3500   2.576   1_556  S
O2976      C2977   1.314       .  A
O2978     Zr2981   2.567       .  S
O2978      C2980   1.313       .  A
O2979     Zr2987   2.651   1_556  S
O2979      C2980   1.322       .  A
Zr2981     O2982   2.434       .  S
Zr2981     O2983   2.435       .  S
Zr2981     O2990   2.430       .  S
Zr2981     O2993   2.394   1_556  S
Zr2984     O2986   2.435       .  S
Zr2984     O4014   2.410       .  S
Zr2984     O2992   2.380       .  S
Zr2987     O3468   2.642   1_545  S
Zr2987     O3997   2.619   1_544  S
Zr2987     O2990   2.438   1_554  S
Zr2987     O4016   2.421   1_544  S
Zr2987     O2993   2.426       .  S
Zr2988     O3977   2.651   1_545  S
Zr2988     O3488   2.576   1_545  S
Zr2988     O2991   2.414       .  S
Zr2988     O4018   2.416   1_545  S
O2989      H2997   0.966       .  S
O2990     Zr4008   2.409   1_545  S
O2992     Zr4011   2.420   1_556  S
O2992      H2996   0.965       .  S
O2993      H2998   0.963       .  S
O2994     Zr4012   2.416       .  S
O3011     Zr3023   2.519       .  S
O3011      C3013   1.301       .  A
O3012     Zr3049   2.679       .  S
O3012      C3013   1.341       .  A
O3014     Zr3026   2.503       .  S
O3014      C3016   1.299       .  A
O3015     Zr3050   2.641       .  S
O3015      C3016   1.333       .  A
O3017     Zr3026   2.485       .  S
O3017      C3019   1.297       .  A
O3018     Zr3049   2.636       .  S
O3018      C3019   1.332       .  A
O3020     Zr3023   2.500       .  S
O3020      C3022   1.303       .  A
O3021     Zr3050   2.577       .  S
O3021      C3022   1.317       .  A
Zr3023     O3024   2.430       .  S
Zr3023     O3025   2.437       .  S
Zr3023     O3029   2.395       .  S
Zr3023     O3030   2.403       .  S
Zr3023     O3053   2.392       .  S
Zr3023     O3055   2.396       .  S
O3024      H3067   0.989       .  S
O3025      H3066   0.990       .  S
O3025      H3070   0.990       .  S
Zr3026     O3027   2.436       .  S
Zr3026     O3028   2.434       .  S
Zr3026     O3030   2.382       .  S
Zr3026     O3029   2.407       .  S
Zr3026     O3054   2.396       .  S
Zr3026     O3056   2.397       .  S
O3027      H3068   0.989       .  S
O3027      H3071   0.989       .  S
O3028      H3061   0.990       .  S
O3029     Zr3049   2.436       .  S
O3030     Zr3050   2.437       .  S
O3030      H3057   0.963       .  S
O3031     Zr3043   2.498       .  S
O3031      C3033   1.300       .  A
O3032     Zr3050   2.631       .  S
O3032      C3033   1.331       .  A
O3034     Zr3046   2.504       .  S
O3034      C3036   1.304       .  A
O3035     Zr3049   2.579       .  S
O3035      C3036   1.317       .  A
O3037     Zr3046   2.518       .  S
O3037      C3039   1.301       .  A
O3038     Zr3050   2.678       .  S
O3038      C3039   1.341       .  A
O3040     Zr3043   2.507       .  S
O3040      C3042   1.300       .  A
O3041     Zr3049   2.643       .  S
O3041      C3042   1.333       .  A
Zr3043     O3044   2.436       .  S
Zr3043     O3045   2.436       .  S
Zr3043     O3051   2.411       .  S
Zr3043     O3052   2.381       .  S
Zr3043     O3055   2.398       .  S
Zr3043     O3053   2.388       .  S
O3044      H3064   0.988       .  S
O3044      H3069   0.989       .  S
O3045      H3065   0.990       .  S
Zr3046     O3047   2.433       .  S
Zr3046     O3048   2.436       .  S
Zr3046     O3052   2.397       .  S
Zr3046     O3051   2.398       .  S
Zr3046     O3056   2.396       .  S
Zr3046     O3054   2.393       .  S
O3047      H3063   0.989       .  S
O3048      H3062   0.990       .  S
O3048      H3072   0.990       .  S
Zr3049     O3052   2.434       .  S
Zr3049     O3054   2.454       .  S
Zr3049     O3055   2.432       .  S
Zr3050     O3051   2.439       .  S
Zr3050     O3053   2.447       .  S
Zr3050     O3056   2.429       .  S
O3051      H3059   0.965       .  S
O3054      H3058   0.965       .  S
O3055      H3060   0.967       .  S
C3073      C3075   1.586       .  S
C3073      C3077   1.521       .  S
C3073      C3076   1.529       .  S
C3073      C3531   1.622       .  S
C3074      C3078   1.528       .  S
C3074      C3080   1.518       .  S
C3074      C3079   1.564       .  S
C3074      C3463   1.628       .  S
C3075      C3083   1.396       .  A
C3075      C3078   1.443       .  A
C3076      C3087   1.386       .  A
C3076      C3079   1.448       .  A
C3077      C3091   1.353       .  A
C3077      C3080   1.401       .  A
C3078      C3081   1.339       .  A
C3079      C3085   1.335       .  A
C3080      C3088   1.352       .  A
C3081      N3082   1.327       .  A
C3081      H3094   1.068       .  S
N3082      C3083   1.374       .  A
N3082      C3355   1.463       .  S
C3083      H3084   1.075       .  S
C3085      N3086   1.346       .  A
C3085      H3095   1.083       .  S
N3086      C3087   1.346       .  A
N3086      C3173   1.440       .  S
C3087      H3093   1.079       .  S
C3088      N3089   1.348       .  A
C3088      H3090   1.072       .  S
N3089      C3091   1.338       .  A
N3089      C3116   1.395       .  S
C3091      H3092   1.071       .  S
N3096      C3101   1.331       .  A
N3096      H3128   1.042       .  S
N3097      C3104   1.325       .  A
N3097      C3105   1.323       .  A
N3098      C3103   1.346       .  A
N3098      H3129   1.045       .  S
N3099      C3106   1.328       .  A
N3099      C3107   1.333       .  A
C3100      C3108   1.382       .  A
C3100      C3116   1.384       .  A
C3101      C3117   1.378       .  A
C3101      C3109   1.385       .  A
C3102      C3110   1.386       .  A
C3102      C3119   1.399       .  A
C3103      C3118   1.409       .  A
C3103      C3111   1.389       .  A
C3104      C3116   1.397       .  A
C3104      C3112   1.390       .  A
C3105      C3119   1.369       .  A
C3105      C3113   1.383       .  A
C3106      C3114   1.389       .  A
C3106      C3117   1.399       .  A
C3107      C3115   1.383       .  A
C3107      C3118   1.377       .  A
C3108      H3120   1.079       .  S
C3109      H3121   1.083       .  S
C3110      H3122   1.082       .  S
C3111      H3123   1.079       .  S
C3112      C3113   1.377       .  A
C3112      H3124   1.080       .  S
C3113      H3125   1.083       .  S
C3114      C3115   1.376       .  A
C3114      H3126   1.079       .  S
C3115      H3127   1.083       .  S
C3117      N3401   1.395       .  S
C3118      N3139   1.424       .  S
C3119      N3447   1.413       .  S
C3130      C3132   1.500       .  S
C3130      C3134   1.566       .  S
C3130      C3133   1.522       .  S
C3130      C3466   1.682       .  S
C3131      C3135   1.565       .  S
C3131      C3137   1.543       .  S
C3131      C3136   1.541       .  S
C3131      C3551   1.670       .  S
C3132      C3140   1.356       .  A
C3132      C3135   1.434       .  A
C3133      C3144   1.344       .  A
C3133      C3136   1.439       .  A
C3134      C3148   1.317       .  A
C3134      C3137   1.450       .  A
C3135      C3138   1.373       .  A
C3136      C3142   1.362       .  A
C3137      C3145   1.368       .  A
C3138      N3139   1.362       .  A
C3138      H3151   1.078       .  S
N3139      C3140   1.337       .  A
C3140      H3141   1.084       .  S
C3142      N3143   1.354       .  A
C3142      H3152   1.073       .  S
N3143      C3144   1.328       .  A
N3143      C3207   1.424       .  S
C3144      H3150   1.083       .  S
C3145      N3146   1.355       .  A
C3145      H3147   1.064       .  S
N3146      C3148   1.342       .  A
N3146      C3321   1.471       .  S
C3148      H3149   1.024       .  S
N3153      C3157   1.334       .  A
N3153      H3185   1.046       .  S
N3154      C3161   1.343       .  A
N3154      C3162   1.332       .  A
N3155      C3159   1.348       .  A
N3155      H3186   1.045       .  S
N3156      C3163   1.331       .  A
N3156      C3164   1.336       .  A
C3157      C3165   1.373       .  A
C3157      C3173   1.384       .  A
C3158      C3174   1.379       .  A
C3158      C3166   1.369   1_565  A
C3159      C3167   1.364       .  A
C3159      C3176   1.396       .  A
C3160      C3175   1.410       .  A
C3160      C3168   1.386   1_565  A
C3161      C3173   1.427       .  A
C3161      C3169   1.388       .  A
C3162      C3176   1.423       .  A
C3162      C3170   1.379       .  A
C3163      C3171   1.375       .  A
C3163      C3174   1.421       .  A
C3164      C3172   1.383       .  A
C3164      C3175   1.424       .  A
C3165      H3177   1.077       .  S
C3166      H3178   1.070   1_545  S
C3167      H3179   1.073       .  S
C3168      H3180   1.070   1_545  S
C3169      C3170   1.385       .  A
C3169      H3181   1.071       .  S
C3170      H3182   1.083       .  S
C3171      C3172   1.378       .  A
C3171      H3183   1.074       .  S
C3172      H3184   1.059       .  S
C3174      N3451   1.435       .  S
C3175      N3234   1.451       .  S
C3176      N3428   1.426       .  S
N3187      C3192   1.340       .  A
N3187      H3219   1.045       .  S
N3188      C3195   1.332       .  A
N3188      C3196   1.342       .  A
N3189      C3194   1.334       .  A
N3189      H3220   1.046       .  S
N3190      C3197   1.335       .  A
N3190      C3198   1.331       .  A
C3191      C3199   1.362       .  A
C3191      C3207   1.394       .  A
C3192      C3208   1.414       .  A
C3192      C3200   1.386       .  A
C3193      C3201   1.373       .  A
C3193      C3210   1.383       .  A
C3194      C3209   1.378       .  A
C3194      C3202   1.370       .  A
C3195      C3207   1.422       .  A
C3195      C3203   1.378       .  A
C3196      C3210   1.424       .  A
C3196      C3204   1.388       .  A
C3197      C3205   1.385       .  A
C3197      C3208   1.427       .  A
C3198      C3206   1.374       .  A
C3198      C3209   1.419       .  A
C3199      H3211   1.073       .  S
C3200      H3212   1.068       .  S
C3201      H3213   1.074       .  S
C3202      H3214   1.074       .  S
C3203      C3204   1.383       .  A
C3203      H3215   1.083       .  S
C3204      H3216   1.072       .  S
C3205      C3206   1.380       .  A
C3205      H3217   1.059       .  S
C3206      H3218   1.078       .  S
C3208      N3405   1.451       .  S
C3209      N3294   1.435       .  S
C3210      N3382   1.440       .  S
C3221      C3223   1.542       .  S
C3221      C3225   1.521       .  S
C3221      C3224   1.551       .  S
C3221      C3486   1.621       .  S
C3222      C3226   1.510       .  S
C3222      C3228   1.536       .  S
C3222      C3227   1.560       .  S
C3222      C3534   1.602       .  S
C3223      C3231   1.359       .  A
C3223      C3226   1.412       .  A
C3224      C3235   1.354       .  A
C3224      C3227   1.449       .  A
C3225      C3239   1.327       .  A
C3225      C3228   1.430       .  A
C3226      C3229   1.351       .  A
C3227      C3233   1.398       .  A
C3228      C3236   1.369       .  A
C3229      N3230   1.335       .  A
C3229      H3242   1.078       .  S
N3230      C3231   1.356       .  A
N3230      C3267   1.395       .  S
C3231      H3232   1.079       .  S
C3233      N3234   1.359       .  A
C3233      H3243   1.071       .  S
N3234      C3235   1.334       .  A
C3235      H3241   1.084       .  S
C3236      N3237   1.346       .  A
C3236      H3238   1.078       .  S
N3237      C3239   1.337       .  A
N3237      C3323   1.426       .  S
C3239      H3240   1.073       .  S
N3244      C3249   1.343   1_455  A
N3244      H3276   1.046   1_455  S
N3245      C3252   1.337       .  A
N3245      C3253   1.328       .  A
N3246      C3251   1.331       .  A
N3246      H3277   1.042       .  S
N3247      C3254   1.323       .  A
N3247      C3255   1.326       .  A
C3248      C3256   1.389       .  A
C3248      C3264   1.402       .  A
C3249      C3265   1.398       .  A
C3249      C3257   1.387       .  A
C3250      C3258   1.387       .  A
C3250      C3267   1.382       .  A
C3251      C3266   1.384       .  A
C3251      C3259   1.382       .  A
C3252      C3264   1.375       .  A
C3252      C3260   1.381       .  A
C3253      C3267   1.402       .  A
C3253      C3261   1.391       .  A
C3254      C3262   1.381       .  A
C3254      C3265   1.366       .  A
C3255      C3263   1.389       .  A
C3255      C3266   1.396       .  A
C3256      H3268   1.080       .  S
C3257      H3269   1.082       .  S
C3258      H3270   1.083       .  S
C3259      H3271   1.079       .  S
C3260      C3261   1.374       .  A
C3260      H3272   1.083       .  S
C3261      H3273   1.079       .  S
C3262      C3263   1.378       .  A
C3262      H3274   1.082       .  S
C3263      H3275   1.080       .  S
C3264      N3431   1.424       .  S
C3265      N3287   1.412       .  S
C3266      N3378   1.396       .  S
C3278      C3280   1.552       .  S
C3278      C3282   1.546       .  S
C3278      C3281   1.508       .  S
C3278      C3554   1.636       .  S
C3279      C3283   1.514       .  S
C3279      C3285   1.534       .  S
C3279      C3284   1.588       .  S
C3279      C3483   1.701       .  S
C3280      C3288   1.382       .  A
C3280      C3283   1.443       .  A
C3281      C3292   1.370       .  A
C3281      C3284   1.450       .  A
C3282      C3296   1.367       .  A
C3282      C3285   1.443       .  A
C3283      C3286   1.349       .  A
C3284      C3290   1.326       .  A
C3285      C3293   1.343       .  A
C3286      N3287   1.323       .  A
C3286      H3299   1.083       .  S
N3287      C3288   1.353       .  A
C3288      H3289   1.080       .  S
C3290      N3291   1.361       .  A
C3290      H3300   1.056       .  S
N3291      C3292   1.328       .  A
N3291      C3357   1.455       .  S
C3292      H3298   1.074       .  S
C3293      N3294   1.329       .  A
C3293      H3295   1.084       .  S
N3294      C3296   1.353       .  A
C3296      H3297   1.069       .  S
N3301      C3818   1.341   1_554  A
N3301      C3305   1.350       .  A
N3301      H3333   1.015       .  S
N3302      C3309   1.327       .  A
N3302      C3310   1.340       .  A
N3303      C3820   1.316   1_554  A
N3303      C3307   1.333       .  A
N3303      H3334   1.048       .  S
N3304      C3311   1.312       .  A
N3304      C3312   1.331       .  A
C3305      C3313   1.373       .  A
C3305      C3321   1.408       .  A
C3306      C3322   1.429       .  A
C3306      C3314   1.372       .  A
C3306      N3813   1.342       .  A
C3307      C3315   1.372       .  A
C3307      C3324   1.355       .  A
C3308      C3323   1.361       .  A
C3308      C3316   1.358       .  A
C3308      N3815   1.317       .  A
C3309      C3321   1.413       .  A
C3309      C3317   1.388       .  A
C3310      C3324   1.416       .  A
C3310      C3318   1.380       .  A
C3311      C3319   1.390       .  A
C3311      C3322   1.395       .  A
C3312      C3320   1.377       .  A
C3312      C3323   1.393       .  A
C3313      C3826   1.391       .  A
C3313      H3325   1.082       .  S
C3314      C3825   1.391       .  A
C3314      H3326   1.064       .  S
C3315      C3828   1.369       .  A
C3315      H3327   1.082       .  S
C3316      C3827   1.368       .  A
C3316      H3328   1.071       .  S
C3317      C3318   1.389       .  A
C3317      H3329   1.082       .  S
C3318      H3330   1.077       .  S
C3319      C3320   1.380       .  A
C3319      H3331   1.069       .  S
C3320      H3332   1.080       .  S
C3322      N3385   1.464       .  S
C3324      N3454   1.456       .  S
N3335      C3852   1.351       .  A
N3335      C3339   1.341   1_556  A
N3335      H3367   1.026       .  S
N3336      C3343   1.312       .  A
N3336      C3344   1.331       .  A
N3337      C3854   1.335       .  A
N3337      C3341   1.318   1_556  A
N3337      H3368   1.047       .  S
N3338      C3345   1.328       .  A
N3338      C3346   1.341       .  A
C3339      C3347   1.371   1_554  A
C3339      C3355   1.428       .  A
C3340      C3356   1.409       .  A
C3340      C3348   1.375       .  A
C3340      N3847   1.351       .  A
C3341      C3349   1.359   1_554  A
C3341      C3358   1.364       .  A
C3342      C3357   1.354       .  A
C3342      C3350   1.372       .  A
C3342      N3849   1.333       .  A
C3343      C3355   1.393       .  A
C3343      C3351   1.391       .  A
C3344      C3358   1.394       .  A
C3344      C3352   1.378       .  A
C3345      C3353   1.389       .  A
C3345      C3356   1.416       .  A
C3346      C3354   1.379       .  A
C3346      C3357   1.418       .  A
C3347      C3860   1.390       .  A
C3347      H3359   1.064   1_556  S
C3348      C3859   1.391       .  A
C3348      H3360   1.082       .  S
C3349      C3862   1.369       .  A
C3349      H3361   1.069   1_556  S
C3350      C3861   1.369       .  A
C3350      H3362   1.082       .  S
C3351      C3352   1.382       .  A
C3351      H3363   1.072       .  S
C3352      H3364   1.080       .  S
C3353      C3354   1.389       .  A
C3353      H3365   1.083       .  S
C3354      H3366   1.077       .  S
C3356      N3424   1.471       .  S
C3358      N3408   1.426       .  S
C3369      C3371   1.522       .  S
C3369      C3373   1.584       .  S
C3369      C3372   1.532       .  S
C3369      C3545   1.626       .  S
C3370      C3374   1.520       .  S
C3370      C3376   1.528       .  S
C3370      C3375   1.561       .  S
C3370      C3489   1.623       .  S
C3371      C3379   1.354       .  A
C3371      C3374   1.402       .  A
C3372      C3383   1.383       .  A
C3372      C3375   1.447       .  A
C3373      C3387   1.396       .  A
C3373      C3376   1.443       .  A
C3374      C3377   1.357       .  A
C3375      C3381   1.338       .  A
C3376      C3384   1.340       .  A
C3377      N3378   1.349       .  A
C3377      H3390   1.077       .  S
N3378      C3379   1.339       .  A
C3379      H3380   1.071       .  S
C3381      N3382   1.346       .  A
C3381      H3391   1.083       .  S
N3382      C3383   1.346       .  A
C3383      H3389   1.079       .  S
C3384      N3385   1.328       .  A
C3384      H3386   1.068       .  S
N3385      C3387   1.373       .  A
C3387      H3388   1.076       .  S
C3392      C3394   1.512       .  S
C3392      C3396   1.535       .  S
C3392      C3395   1.562       .  S
C3392      C3548   1.600       .  S
C3393      C3397   1.538       .  S
C3393      C3399   1.521       .  S
C3393      C3398   1.551       .  S
C3393      C3472   1.617       .  S
C3394      C3402   1.354       .  A
C3394      C3397   1.411       .  A
C3395      C3406   1.398       .  A
C3395      C3398   1.451       .  A
C3396      C3410   1.370       .  A
C3396      C3399   1.427       .  A
C3397      C3400   1.354       .  A
C3398      C3404   1.356       .  A
C3399      C3407   1.327       .  A
C3400      N3401   1.352       .  A
C3400      H3413   1.076       .  S
N3401      C3402   1.335       .  A
C3402      H3403   1.078       .  S
C3404      N3405   1.334       .  A
C3404      H3414   1.085       .  S
N3405      C3406   1.359       .  A
C3406      H3412   1.073       .  S
C3407      N3408   1.337       .  A
C3407      H3409   1.073       .  S
N3408      C3410   1.347       .  A
C3410      H3411   1.078       .  S
C3415      C3417   1.565       .  S
C3415      C3419   1.502       .  S
C3415      C3418   1.524       .  S
C3415      C3492   1.683       .  S
C3416      C3420   1.544       .  S
C3416      C3422   1.563       .  S
C3416      C3421   1.542       .  S
C3416      C3525   1.672       .  S
C3417      C3425   1.317       .  A
C3417      C3420   1.449       .  A
C3418      C3429   1.341       .  A
C3418      C3421   1.440       .  A
C3419      C3433   1.355       .  A
C3419      C3422   1.434       .  A
C3420      C3423   1.369       .  A
C3421      C3427   1.366       .  A
C3422      C3430   1.372       .  A
C3423      N3424   1.356       .  A
C3423      H3436   1.064       .  S
N3424      C3425   1.342       .  A
C3425      H3426   1.026       .  S
C3427      N3428   1.354       .  A
C3427      H3437   1.073       .  S
N3428      C3429   1.329       .  A
C3429      H3435   1.082       .  S
C3430      N3431   1.362       .  A
C3430      H3432   1.080       .  S
N3431      C3433   1.339       .  A
C3433      H3434   1.084       .  S
C3438      C3440   1.551       .  S
C3438      C3442   1.508       .  S
C3438      C3441   1.549       .  S
C3438      C3528   1.640       .  S
C3439      C3443   1.515       .  S
C3439      C3445   1.587       .  S
C3439      C3444   1.534       .  S
C3439      C3469   1.701       .  S
C3440      C3448   1.381       .  A
C3440      C3443   1.444       .  A
C3441      C3452   1.369       .  A
C3441      C3444   1.445       .  A
C3442      C3456   1.369       .  A
C3442      C3445   1.450       .  A
C3443      C3446   1.348       .  A
C3444      C3450   1.345       .  A
C3445      C3453   1.328       .  A
C3446      N3447   1.323       .  A
C3446      H3459   1.082       .  S
N3447      C3448   1.353       .  A
C3448      H3449   1.079       .  S
C3450      N3451   1.329       .  A
C3450      H3460   1.084       .  S
N3451      C3452   1.353       .  A
C3452      H3458   1.069       .  S
C3453      N3454   1.361       .  A
C3453      H3455   1.053       .  S
N3454      C3456   1.327       .  A
C3456      H3457   1.074       .  S
O3461     Zr3473   2.519       .  S
O3461      C3463   1.301       .  A
O3462     Zr4011   2.577       .  S
O3462      C3463   1.314       .  A
O3464      C3466   1.313       .  A
O3465      C3466   1.321       .  A
O3467     Zr3476   2.578       .  S
O3467      C3469   1.318       .  A
O3468      C3469   1.325       .  A
O3470      C3472   1.289       .  A
O3471     Zr3500   2.608       .  S
O3471      C3472   1.324       .  A
Zr3473     O3474   2.417       .  S
Zr3473     O3475   2.431       .  S
Zr3473     O3479   2.410       .  S
Zr3473     O4017   2.373       .  S
O3474      H3517   0.990       .  S
O3475      H3516   0.990       .  S
O3475      H3520   0.986       .  S
Zr3476     O3477   2.423       .  S
Zr3476     O4016   2.381   1_554  S
O3477      H3521   0.990       .  S
O3479     Zr4011   2.439       .  S
O3480     Zr3500   2.440       .  S
O3480      H3507   0.966       .  S
O3481      C3483   1.318       .  A
O3482     Zr4012   2.640       .  S
O3482      C3483   1.325       .  A
O3484     Zr3496   2.475       .  S
O3484      C3486   1.290       .  A
O3485      C3486   1.327       .  A
O3487      C3489   1.298       .  A
O3488      C3489   1.314       .  A
O3490     Zr3493   2.571       .  S
O3490      C3492   1.315       .  A
O3491     Zr3499   2.647       .  S
O3491      C3492   1.323       .  A
Zr3493     O3494   2.427       .  S
Zr3493     O3495   2.435       .  S
Zr3493     O3502   2.426       .  S
Zr3493     O3505   2.391       .  S
Zr3496     O3498   2.437       .  S
Zr3496     O3504   2.379       .  S
Zr3499     O3974   2.582       .  S
Zr3499     O3991   2.441       .  S
Zr3499     O3502   2.436       .  S
Zr3499     O3505   2.425       .  S
Zr3500     O3994   2.635   1_554  S
Zr3500     O4013   2.447   1_554  S
Zr3500     O3503   2.416       .  S
O3501     Zr4012   2.448       .  S
O3501      H3509   0.969       .  S
O3504     Zr3988   2.380       .  S
O3504      H3508   0.964       .  S
O3505     Zr3985   2.374       .  S
O3505      H3510   0.963       .  S
O3523     Zr3535   2.528       .  S
O3523      C3525   1.302       .  A
O3524     Zr3561   2.679       .  S
O3524      C3525   1.341       .  A
O3526     Zr3538   2.507       .  S
O3526      C3528   1.300       .  A
O3527     Zr3562   2.637       .  S
O3527      C3528   1.332       .  A
O3529     Zr3538   2.490       .  S
O3529      C3531   1.298       .  A
O3530     Zr3561   2.627       .  S
O3530      C3531   1.330       .  A
O3532     Zr3535   2.497       .  S
O3532      C3534   1.303       .  A
O3533     Zr3562   2.580       .  S
O3533      C3534   1.318       .  A
Zr3535     O3536   2.435       .  S
Zr3535     O3537   2.434       .  S
Zr3535     O3541   2.392       .  S
Zr3535     O3542   2.407       .  S
Zr3535     O3565   2.399       .  S
Zr3535     O3567   2.390       .  S
O3536      H3579   0.990       .  S
O3537      H3578   0.991       .  S
O3537      H3582   0.990       .  S
Zr3538     O3539   2.436       .  S
Zr3538     O3540   2.436       .  S
Zr3538     O3542   2.380       .  S
Zr3538     O3541   2.409       .  S
Zr3538     O3566   2.395       .  S
Zr3538     O3568   2.396       .  S
O3539      H3580   0.989       .  S
O3539      H3583   0.989       .  S
O3540      H3573   0.990       .  S
O3541     Zr3561   2.433       .  S
O3542     Zr3562   2.437       .  S
O3542      H3569   0.966       .  S
O3543     Zr3555   2.495       .  S
O3543      C3545   1.299       .  A
O3544     Zr3562   2.624       .  S
O3544      C3545   1.329       .  A
O3546     Zr3558   2.500       .  S
O3546      C3548   1.303       .  A
O3547     Zr3561   2.570       .  S
O3547      C3548   1.316       .  A
O3549     Zr3558   2.518       .  S
O3549      C3551   1.301       .  A
O3550     Zr3562   2.686       .  S
O3550      C3551   1.343       .  A
O3552     Zr3555   2.499       .  S
O3552      C3554   1.298       .  A
O3553     Zr3561   2.635       .  S
O3553      C3554   1.332       .  A
Zr3555     O3556   2.442       .  S
Zr3555     O3557   2.435       .  S
Zr3555     O3563   2.407       .  S
Zr3555     O3564   2.374       .  S
Zr3555     O3567   2.401       .  S
Zr3555     O3565   2.391       .  S
O3556      H3576   0.988       .  S
O3556      H3581   0.989       .  S
O3557      H3577   0.990       .  S
Zr3558     O3559   2.430       .  S
Zr3558     O3560   2.436       .  S
Zr3558     O3564   2.397       .  S
Zr3558     O3563   2.397       .  S
Zr3558     O3568   2.392       .  S
Zr3558     O3566   2.391       .  S
O3559      H3575   0.989       .  S
O3560      H3574   0.990       .  S
O3560      H3584   0.990       .  S
Zr3561     O3564   2.433       .  S
Zr3561     O3566   2.456       .  S
Zr3561     O3567   2.427       .  S
Zr3562     O3563   2.434       .  S
Zr3562     O3565   2.453       .  S
Zr3562     O3568   2.426       .  S
O3563      H3571   0.966       .  S
O3566      H3570   0.967       .  S
O3567      H3572   0.967       .  S
C3585      C3587   1.587       .  S
C3585      C3589   1.522       .  S
C3585      C3588   1.530       .  S
C3585      C4043   1.627       .  S
C3586      C3590   1.527       .  S
C3586      C3592   1.522       .  S
C3586      C3591   1.562       .  S
C3586      C3975   1.625       .  S
C3587      C3595   1.397       .  A
C3587      C3590   1.444       .  A
C3588      C3599   1.384       .  A
C3588      C3591   1.447       .  A
C3589      C3603   1.355       .  A
C3589      C3592   1.401       .  A
C3590      C3593   1.343       .  A
C3591      C3597   1.336       .  A
C3592      C3600   1.356       .  A
C3593      N3594   1.328       .  A
C3593      H3606   1.067       .  S
N3594      C3595   1.373       .  A
N3594      C3867   1.464       .  S
C3595      H3596   1.076       .  S
C3597      N3598   1.346       .  A
C3597      H3607   1.083       .  S
N3598      C3599   1.346       .  A
N3598      C3685   1.440       .  S
C3599      H3605   1.079       .  S
C3600      N3601   1.349       .  A
C3600      H3602   1.073       .  S
N3601      C3603   1.339       .  A
N3601      C3628   1.397       .  S
C3603      H3604   1.071       .  S
N3608      C3613   1.332       .  A
N3608      H3640   1.040       .  S
N3609      C3616   1.327       .  A
N3609      C3617   1.324       .  A
N3610      C3615   1.344       .  A
N3610      H3641   1.045       .  S
N3611      C3618   1.328       .  A
N3611      C3619   1.333       .  A
C3612      C3620   1.382       .  A
C3612      C3628   1.385       .  A
C3613      C3629   1.381       .  A
C3613      C3621   1.386       .  A
C3614      C3622   1.385       .  A
C3614      C3631   1.401       .  A
C3615      C3630   1.407       .  A
C3615      C3623   1.389       .  A
C3616      C3628   1.399       .  A
C3616      C3624   1.390       .  A
C3617      C3631   1.371       .  A
C3617      C3625   1.383       .  A
C3618      C3626   1.389       .  A
C3618      C3629   1.399       .  A
C3619      C3627   1.382       .  A
C3619      C3630   1.374       .  A
C3620      H3632   1.080       .  S
C3621      H3633   1.083       .  S
C3622      H3634   1.082       .  S
C3623      H3635   1.079       .  S
C3624      C3625   1.376       .  A
C3624      H3636   1.080       .  S
C3625      H3637   1.083       .  S
C3626      C3627   1.375       .  A
C3626      H3638   1.078       .  S
C3627      H3639   1.083       .  S
C3629      N3913   1.396       .  S
C3630      N3651   1.423       .  S
C3631      N3959   1.417       .  S
C3642      C3644   1.500       .  S
C3642      C3646   1.566       .  S
C3642      C3645   1.520       .  S
C3642      C3978   1.683       .  S
C3643      C3647   1.564       .  S
C3643      C3649   1.544       .  S
C3643      C3648   1.542       .  S
C3643      C4063   1.672       .  S
C3644      C3652   1.355       .  A
C3644      C3647   1.434       .  A
C3645      C3656   1.342       .  A
C3645      C3648   1.438       .  A
C3646      C3660   1.317       .  A
C3646      C3649   1.451       .  A
C3647      C3650   1.372       .  A
C3648      C3654   1.360       .  A
C3649      C3657   1.369       .  A
C3650      N3651   1.362       .  A
C3650      H3663   1.079       .  S
N3651      C3652   1.337       .  A
C3652      H3653   1.084       .  S
C3654      N3655   1.354       .  A
C3654      H3664   1.072       .  S
N3655      C3656   1.328       .  A
N3655      C3719   1.424       .  S
C3656      H3662   1.083       .  S
C3657      N3658   1.356       .  A
C3657      H3659   1.064       .  S
N3658      C3660   1.342       .  A
N3658      C3833   1.472       .  S
C3660      H3661   1.024       .  S
N3665      C3669   1.330       .  A
N3665      H3697   1.046       .  S
N3666      C3673   1.343       .  A
N3666      C3674   1.332       .  A
N3667      C3671   1.348       .  A
N3667      H3698   1.045       .  S
N3668      C3675   1.331       .  A
N3668      C3676   1.336       .  A
C3669      C3677   1.373       .  A
C3669      C3685   1.382       .  A
C3670      C3686   1.376       .  A
C3670      C3678   1.369   1_565  A
C3671      C3679   1.363       .  A
C3671      C3688   1.397       .  A
C3672      C3687   1.413       .  A
C3672      C3680   1.386   1_565  A
C3673      C3685   1.425       .  A
C3673      C3681   1.387       .  A
C3674      C3688   1.422       .  A
C3674      C3682   1.379       .  A
C3675      C3683   1.374       .  A
C3675      C3686   1.418       .  A
C3676      C3684   1.385       .  A
C3676      C3687   1.426       .  A
C3677      H3689   1.076       .  S
C3678      H3690   1.071   1_545  S
C3679      H3691   1.072       .  S
C3680      H3692   1.071   1_545  S
C3681      C3682   1.384       .  A
C3681      H3693   1.072       .  S
C3682      H3694   1.083       .  S
C3683      C3684   1.379       .  A
C3683      H3695   1.076       .  S
C3684      H3696   1.059       .  S
C3686      N3963   1.434       .  S
C3687      N3746   1.451       .  S
C3688      N3940   1.425       .  S
N3699      C3704   1.339       .  A
N3699      H3731   1.045       .  S
N3700      C3707   1.333       .  A
N3700      C3708   1.342       .  A
N3701      C3706   1.334       .  A
N3701      H3732   1.046       .  S
N3702      C3709   1.335       .  A
N3702      C3710   1.331       .  A
C3703      C3711   1.362       .  A
C3703      C3719   1.396       .  A
C3704      C3720   1.417       .  A
C3704      C3712   1.389       .  A
C3705      C3713   1.376       .  A
C3705      C3722   1.382       .  A
C3706      C3721   1.380       .  A
C3706      C3714   1.373       .  A
C3707      C3719   1.423       .  A
C3707      C3715   1.378       .  A
C3708      C3722   1.424       .  A
C3708      C3716   1.387       .  A
C3709      C3717   1.385       .  A
C3709      C3720   1.428       .  A
C3710      C3718   1.373       .  A
C3710      C3721   1.419       .  A
C3711      H3723   1.073       .  S
C3712      H3724   1.068       .  S
C3713      H3725   1.076       .  S
C3714      H3726   1.075       .  S
C3715      C3716   1.383       .  A
C3715      H3727   1.083       .  S
C3716      H3728   1.072       .  S
C3717      C3718   1.381       .  A
C3717      H3729   1.057       .  S
C3718      H3730   1.079       .  S
C3720      N3917   1.454       .  S
C3721      N3806   1.438       .  S
C3722      N3894   1.440       .  S
C3733      C3735   1.538       .  S
C3733      C3737   1.523       .  S
C3733      C3736   1.550       .  S
C3733      C3998   1.621       .  S
C3734      C3738   1.513       .  S
C3734      C3740   1.537       .  S
C3734      C3739   1.561       .  S
C3734      C4046   1.605       .  S
C3735      C3743   1.356       .  A
C3735      C3738   1.412       .  A
C3736      C3747   1.358       .  A
C3736      C3739   1.450       .  A
C3737      C3751   1.326       .  A
C3737      C3740   1.429       .  A
C3738      C3741   1.352       .  A
C3739      C3745   1.397       .  A
C3740      C3748   1.370       .  A
C3741      N3742   1.335       .  A
C3741      H3754   1.079       .  S
N3742      C3743   1.355       .  A
N3742      C3779   1.394       .  S
C3743      H3744   1.079       .  S
C3745      N3746   1.359       .  A
C3745      H3755   1.073       .  S
N3746      C3747   1.334       .  A
C3747      H3753   1.084       .  S
C3748      N3749   1.348       .  A
C3748      H3750   1.078       .  S
N3749      C3751   1.337       .  A
N3749      C3835   1.428       .  S
C3751      H3752   1.074       .  S
N3756      C3761   1.343   1_455  A
N3756      H3788   1.045   1_455  S
N3757      C3764   1.333       .  A
N3757      C3765   1.326       .  A
N3758      C3763   1.334       .  A
N3758      H3789   1.041       .  S
N3759      C3766   1.324       .  A
N3759      C3767   1.327       .  A
C3760      C3768   1.388       .  A
C3760      C3776   1.406       .  A
C3761      C3777   1.397       .  A
C3761      C3769   1.386       .  A
C3762      C3770   1.386       .  A
C3762      C3779   1.381       .  A
C3763      C3778   1.385       .  A
C3763      C3771   1.382       .  A
C3764      C3776   1.374       .  A
C3764      C3772   1.382       .  A
C3765      C3779   1.399       .  A
C3765      C3773   1.390       .  A
C3766      C3774   1.381       .  A
C3766      C3777   1.364       .  A
C3767      C3775   1.390       .  A
C3767      C3778   1.397       .  A
C3768      H3780   1.079       .  S
C3769      H3781   1.082       .  S
C3770      H3782   1.083       .  S
C3771      H3783   1.078       .  S
C3772      C3773   1.375       .  A
C3772      H3784   1.083       .  S
C3773      H3785   1.078       .  S
C3774      C3775   1.375       .  A
C3774      H3786   1.083       .  S
C3775      H3787   1.079       .  S
C3776      N3943   1.423       .  S
C3777      N3799   1.411       .  S
C3778      N3890   1.399       .  S
C3790      C3792   1.553       .  S
C3790      C3794   1.552       .  S
C3790      C3793   1.506       .  S
C3790      C4066   1.640       .  S
C3791      C3795   1.512       .  S
C3791      C3797   1.533       .  S
C3791      C3796   1.587       .  S
C3791      C3995   1.698       .  S
C3792      C3800   1.378       .  A
C3792      C3795   1.441       .  A
C3793      C3804   1.371       .  A
C3793      C3796   1.448       .  A
C3794      C3808   1.369       .  A
C3794      C3797   1.446       .  A
C3795      C3798   1.347       .  A
C3796      C3802   1.328       .  A
C3797      C3805   1.346       .  A
C3798      N3799   1.322       .  A
C3798      H3811   1.083       .  S
N3799      C3800   1.355       .  A
C3800      H3801   1.079       .  S
C3802      N3803   1.362       .  A
C3802      H3812   1.055       .  S
N3803      C3804   1.327       .  A
N3803      C3869   1.455       .  S
C3804      H3810   1.074       .  S
C3805      N3806   1.328       .  A
C3805      H3807   1.084       .  S
N3806      C3808   1.356       .  A
C3808      H3809   1.067       .  S
N3813      C3817   1.350       .  A
N3813      H3845   1.015       .  S
N3814      C3821   1.328       .  A
N3814      C3822   1.341       .  A
N3815      C3819   1.333       .  A
N3815      H3846   1.048       .  S
N3816      C3823   1.313       .  A
N3816      C3824   1.332       .  A
C3817      C3825   1.374       .  A
C3817      C3833   1.408       .  A
C3818      C3834   1.427       .  A
C3818      C3826   1.371   1_556  A
C3819      C3827   1.372       .  A
C3819      C3836   1.355       .  A
C3820      C3835   1.362       .  A
C3820      C3828   1.359   1_556  A
C3821      C3833   1.414       .  A
C3821      C3829   1.389       .  A
C3822      C3836   1.417       .  A
C3822      C3830   1.380       .  A
C3823      C3831   1.390       .  A
C3823      C3834   1.396       .  A
C3824      C3832   1.377       .  A
C3824      C3835   1.394       .  A
C3825      H3837   1.082       .  S
C3826      H3838   1.066   1_554  S
C3827      H3839   1.082       .  S
C3828      H3840   1.069   1_554  S
C3829      C3830   1.389       .  A
C3829      H3841   1.082       .  S
C3830      H3842   1.077       .  S
C3831      C3832   1.380       .  A
C3831      H3843   1.070       .  S
C3832      H3844   1.080       .  S
C3834      N3897   1.462       .  S
C3836      N3966   1.457       .  S
N3847      C3851   1.343       .  A
N3847      H3879   1.020       .  S
N3848      C3855   1.312       .  A
N3848      C3856   1.332       .  A
N3849      C3853   1.317       .  A
N3849      H3880   1.048       .  S
N3850      C3857   1.326       .  A
N3850      C3858   1.339       .  A
C3851      C3859   1.372       .  A
C3851      C3867   1.430       .  A
C3852      C3868   1.408       .  A
C3852      C3860   1.373       .  A
C3853      C3861   1.358       .  A
C3853      C3870   1.361       .  A
C3854      C3869   1.356       .  A
C3854      C3862   1.371       .  A
C3855      C3867   1.395       .  A
C3855      C3863   1.390       .  A
C3856      C3870   1.395       .  A
C3856      C3864   1.377       .  A
C3857      C3865   1.388       .  A
C3857      C3868   1.412       .  A
C3858      C3866   1.380       .  A
C3858      C3869   1.417       .  A
C3859      H3871   1.067       .  S
C3860      H3872   1.082       .  S
C3861      H3873   1.070       .  S
C3862      H3874   1.082       .  S
C3863      C3864   1.381       .  A
C3863      H3875   1.071       .  S
C3864      H3876   1.080       .  S
C3865      C3866   1.390       .  A
C3865      H3877   1.083       .  S
C3866      H3878   1.078       .  S
C3868      N3936   1.471       .  S
C3870      N3920   1.427       .  S
C3881      C3883   1.519       .  S
C3881      C3885   1.581       .  S
C3881      C3884   1.531       .  S
C3881      C4057   1.625       .  S
C3882      C3886   1.524       .  S
C3882      C3888   1.528       .  S
C3882      C3887   1.562       .  S
C3882      C4001   1.629       .  S
C3883      C3891   1.352       .  A
C3883      C3886   1.401       .  A
C3884      C3895   1.382       .  A
C3884      C3887   1.447       .  A
C3885      C3899   1.395       .  A
C3885      C3888   1.444       .  A
C3886      C3889   1.359       .  A
C3887      C3893   1.337       .  A
C3888      C3896   1.339       .  A
C3889      N3890   1.352       .  A
C3889      H3902   1.076       .  S
N3890      C3891   1.338       .  A
C3891      H3892   1.070       .  S
C3893      N3894   1.347       .  A
C3893      H3903   1.083       .  S
N3894      C3895   1.345       .  A
C3895      H3901   1.079       .  S
C3896      N3897   1.329       .  A
C3896      H3898   1.066       .  S
N3897      C3899   1.371       .  A
C3899      H3900   1.076       .  S
C3904      C3906   1.509       .  S
C3904      C3908   1.537       .  S
C3904      C3907   1.564       .  S
C3904      C4060   1.603       .  S
C3905      C3909   1.543       .  S
C3905      C3911   1.520       .  S
C3905      C3910   1.552       .  S
C3905      C3984   1.619       .  S
C3906      C3914   1.353       .  A
C3906      C3909   1.414       .  A
C3907      C3918   1.400       .  A
C3907      C3910   1.449       .  A
C3908      C3922   1.369       .  A
C3908      C3911   1.428       .  A
C3909      C3912   1.358       .  A
C3910      C3916   1.357       .  A
C3911      C3919   1.328       .  A
C3912      N3913   1.355       .  A
C3912      H3925   1.076       .  S
N3913      C3914   1.333       .  A
C3914      H3915   1.079       .  S
C3916      N3917   1.334       .  A
C3916      H3926   1.084       .  S
N3917      C3918   1.361       .  A
C3918      H3924   1.073       .  S
C3919      N3920   1.337       .  A
C3919      H3921   1.074       .  S
N3920      C3922   1.346       .  A
C3922      H3923   1.078       .  S
C3927      C3929   1.567       .  S
C3927      C3931   1.499       .  S
C3927      C3930   1.522       .  S
C3927      C4004   1.679       .  S
C3928      C3932   1.543       .  S
C3928      C3934   1.563       .  S
C3928      C3933   1.544       .  S
C3928      C4037   1.670       .  S
C3929      C3937   1.317       .  A
C3929      C3932   1.449       .  A
C3930      C3941   1.346       .  A
C3930      C3933   1.438       .  A
C3931      C3945   1.354       .  A
C3931      C3934   1.431       .  A
C3932      C3935   1.370       .  A
C3933      C3939   1.363       .  A
C3934      C3942   1.372       .  A
C3935      N3936   1.357       .  A
C3935      H3948   1.064       .  S
N3936      C3937   1.342       .  A
C3937      H3938   1.026       .  S
C3939      N3940   1.356       .  A
C3939      H3949   1.073       .  S
N3940      C3941   1.329       .  A
C3941      H3947   1.083       .  S
C3942      N3943   1.363       .  A
C3942      H3944   1.079       .  S
N3943      C3945   1.338       .  A
C3945      H3946   1.084       .  S
C3950      C3952   1.554       .  S
C3950      C3954   1.508       .  S
C3950      C3953   1.546       .  S
C3950      C4040   1.634       .  S
C3951      C3955   1.515       .  S
C3951      C3957   1.589       .  S
C3951      C3956   1.533       .  S
C3951      C3981   1.700       .  S
C3952      C3960   1.384       .  A
C3952      C3955   1.441       .  A
C3953      C3964   1.367       .  A
C3953      C3956   1.441       .  A
C3954      C3968   1.371       .  A
C3954      C3957   1.451       .  A
C3955      C3958   1.351       .  A
C3956      C3962   1.344       .  A
C3957      C3965   1.329       .  A
C3958      N3959   1.324       .  A
C3958      H3971   1.082       .  S
N3959      C3960   1.355       .  A
C3960      H3961   1.078       .  S
C3962      N3963   1.330       .  A
C3962      H3972   1.084       .  S
N3963      C3964   1.353       .  A
C3964      H3970   1.070       .  S
C3965      N3966   1.362       .  A
C3965      H3967   1.055       .  S
N3966      C3968   1.327       .  A
C3968      H3969   1.074       .  S
O3973     Zr3985   2.503       .  S
O3973      C3975   1.298       .  A
O3974      C3975   1.316       .  A
O3976      C3978   1.312       .  A
O3977      C3978   1.322       .  A
O3979     Zr3988   2.578       .  S
O3979      C3981   1.318       .  A
O3980      C3981   1.325       .  A
O3982      C3984   1.289       .  A
O3983     Zr4012   2.612       .  S
O3983      C3984   1.326       .  A
Zr3985     O3986   2.420       .  S
Zr3985     O3987   2.435       .  S
Zr3985     O3991   2.411       .  S
O3986      H4029   0.990       .  S
O3987      H4028   0.990       .  S
O3987      H4032   0.987       .  S
Zr3988     O3989   2.432       .  S
O3989      H4033   0.990       .  S
O3992     Zr4012   2.438       .  S
O3992      H4019   0.965       .  S
O3993      C3995   1.317       .  A
O3994      C3995   1.323       .  A
O3996     Zr4008   2.473       .  S
O3996      C3998   1.290       .  A
O3997      C3998   1.327       .  A
O3999      C4001   1.299       .  A
O4000      C4001   1.316       .  A
O4002     Zr4005   2.570       .  S
O4002      C4004   1.313       .  A
O4003     Zr4011   2.645   1_556  S
O4003      C4004   1.321       .  A
Zr4005     O4006   2.436       .  S
Zr4005     O4007   2.436       .  S
Zr4005     O4014   2.429       .  S
Zr4005     O4017   2.393   1_556  S
Zr4008     O4010   2.435       .  S
Zr4008     O4016   2.380       .  S
Zr4011     O4014   2.438   1_554  S
Zr4011     O4017   2.431       .  S
Zr4012     O4015   2.420       .  S
O4013      H4021   0.967       .  S
O4016      H4020   0.964       .  S
O4017      H4022   0.963       .  S
O4035     Zr4047   2.524       .  S
O4035      C4037   1.303       .  A
O4036     Zr4073   2.678       .  S
O4036      C4037   1.341       .  A
O4038     Zr4050   2.498       .  S
O4038      C4040   1.298       .  A
O4039     Zr4074   2.638       .  S
O4039      C4040   1.332       .  A
O4041     Zr4050   2.494       .  S
O4041      C4043   1.299       .  A
O4042     Zr4073   2.636       .  S
O4042      C4043   1.332       .  A
O4044     Zr4047   2.499       .  S
O4044      C4046   1.303       .  A
O4045     Zr4074   2.584       .  S
O4045      C4046   1.319       .  A
Zr4047     O4048   2.432       .  S
Zr4047     O4049   2.435       .  S
Zr4047     O4053   2.392       .  S
Zr4047     O4054   2.403       .  S
Zr4047     O4077   2.393       .  S
Zr4047     O4079   2.394       .  S
O4048      H4091   0.989       .  S
O4049      H4090   0.990       .  S
O4049      H4094   0.990       .  S
Zr4050     O4051   2.437       .  S
Zr4050     O4052   2.436       .  S
Zr4050     O4054   2.383       .  S
Zr4050     O4053   2.405       .  S
Zr4050     O4078   2.394       .  S
Zr4050     O4080   2.394       .  S
O4051      H4092   0.989       .  S
O4051      H4095   0.989       .  S
O4052      H4085   0.990       .  S
O4053     Zr4073   2.430       .  S
O4054     Zr4074   2.436       .  S
O4054      H4081   0.967       .  S
O4055     Zr4067   2.494       .  S
O4055      C4057   1.299       .  A
O4056     Zr4074   2.625       .  S
O4056      C4057   1.329       .  A
O4058     Zr4070   2.501       .  S
O4058      C4060   1.304       .  A
O4059     Zr4073   2.575       .  S
O4059      C4060   1.317       .  A
O4061     Zr4070   2.519       .  S
O4061      C4063   1.301       .  A
O4062     Zr4074   2.687       .  S
O4062      C4063   1.343       .  A
O4064     Zr4067   2.505       .  S
O4064      C4066   1.300       .  A
O4065     Zr4073   2.637       .  S
O4065      C4066   1.332       .  A
Zr4067     O4068   2.437       .  S
Zr4067     O4069   2.435       .  S
Zr4067     O4075   2.409       .  S
Zr4067     O4076   2.375       .  S
Zr4067     O4079   2.400       .  S
Zr4067     O4077   2.390       .  S
O4068      H4088   0.988       .  S
O4068      H4093   0.989       .  S
O4069      H4089   0.990       .  S
Zr4070     O4071   2.431       .  S
Zr4070     O4072   2.435       .  S
Zr4070     O4076   2.394       .  S
Zr4070     O4075   2.398       .  S
Zr4070     O4080   2.391       .  S
Zr4070     O4078   2.396       .  S
O4071      H4087   0.988       .  S
O4072      H4086   0.990       .  S
O4072      H4096   0.990       .  S
Zr4073     O4076   2.431       .  S
Zr4073     O4078   2.453       .  S
Zr4073     O4079   2.433       .  S
Zr4074     O4075   2.438       .  S
Zr4074     O4077   2.449       .  S
Zr4074     O4080   2.422       .  S
O4075      H4083   0.966       .  S
O4078      H4082   0.967       .  S
O4079      H4084   0.967       .  S
