geometry optimzed in LAMMPS
_audit_creation_date              2020-11-30 
_audit_creation_method            'lammps2cif' 
_symmetry_space_group_name_H-M    'P1' 
_symmetry_Int_Tables_number       1 
_symmetry_cell_setting            triclinic 
loop_ 
_symmetry_equiv_pos_as_xyz 
  x,y,z 
_cell_length_a                    37.61080729931968 
_cell_length_b                    37.80971463487764 
_cell_length_c                    37.05619339478995 
_cell_angle_alpha                 90.38336850127578 
_cell_angle_beta                  89.98219040082257 
_cell_angle_gamma                 90.07560077528181 
loop_ 
_atom_site_label 
_atom_site_type_symbol 
_atom_site_fract_x 
_atom_site_fract_y 
_atom_site_fract_z 
_atom_site_charge 
C1          C  0.44219193  0.31118994  0.37830433     0.03480
C2          C  0.40830823  0.29903711  0.36789380    -0.12670
C3          C  0.39070263  0.31352055  0.33820944     0.00980
C4          C  0.40557331  0.34264254  0.32063702    -0.11190
C5          C  0.43842027  0.35640121  0.33164965     0.03470
C6          C  0.45717985  0.33987476  0.35970871    -0.10620
H7          H  0.39607844  0.27746146  0.38236686     0.09070
H8          H  0.39152921  0.35449350  0.29829615     0.06600
H9          H  0.48361816  0.34901289  0.36665052     0.06440
C10         C  0.36565009  0.38412528  0.10153834     0.03480
C11         C  0.40128186  0.39362115  0.10985213    -0.12670
C12         C  0.41884292  0.37869251  0.13961453     0.00980
C13         C  0.40370580  0.34973248  0.15714419    -0.11190
C14         C  0.37073639  0.33650369  0.14639792     0.03470
C15         C  0.35130491  0.35447895  0.11994176    -0.10620
H16         H  0.41470512  0.41451196  0.09561736     0.09070
H17         H  0.41659874  0.33888143  0.18079287     0.06600
H18         H  0.32400587  0.34642378  0.11635756     0.06440
C19         C  0.18375124  0.38376653  0.38639832     0.03480
C20         C  0.19436965  0.34911343  0.37641528    -0.12670
C21         C  0.17791851  0.33145870  0.34728968     0.00980
C22         C  0.14758966  0.34608100  0.33144208    -0.11190
C23         C  0.13410261  0.37838933  0.34367061     0.03470
C24         C  0.15279546  0.39754831  0.36998519    -0.10620
H25         H  0.21730559  0.33700386  0.38878107     0.09070
H26         H  0.13578843  0.33338325  0.30799339     0.06600
H27         H  0.14442910  0.42446671  0.37509632     0.06440
C28         C  0.44444790  0.14335044  0.11165294     0.03480
C29         C  0.41044506  0.15366279  0.12305355    -0.12670
C30         C  0.39364274  0.13738375  0.15229851     0.00980
C31         C  0.40932337  0.10756044  0.16794545    -0.11190
C32         C  0.44231932  0.09517273  0.15541028     0.03470
C33         C  0.46047140  0.11424736  0.12850013    -0.10620
H34         H  0.39743358  0.17526753  0.10948419     0.09070
H35         H  0.39590025  0.09405390  0.18976242     0.06600
H36         H  0.48711057  0.10664029  0.12077402     0.06440
C37         C  0.45309119  0.38803235  0.31403173     0.42810
N38         N  0.98469688  0.43416167  0.30526395     0.01700
C39         C  0.48886004  0.04353132  0.15648362    -0.06180
H40         H  0.99305690  0.41149803  0.12190404     0.07190
C41         C  0.11187827  0.40838088  0.20344430    -0.06530
Co42       Co  0.46173726  0.47488292  0.23996031     0.74180
N43         N  0.98820784  0.43842969  0.17347270    -0.25710
Co44       Co  0.02941938  0.47554058  0.17688421     0.74070
C45         C  0.09895181  0.38979427  0.17145626     0.42910
N46         N  0.08859017  0.43599926  0.28594739     0.01320
N47         N  0.06739476  0.43600259  0.18004324     0.01420
N48         N  0.44432933  0.04320504  0.19767883    -0.46550
H49         H  0.41805065  0.39979701  0.26430833     0.07180
N50         N  0.46347802  0.43764347  0.19863818     0.01710
N51         N  0.07022784  0.01311931  0.18020783     0.01450
C52         C  0.10835945  0.05361494  0.16787777     0.43050
N53         N  0.06384144  0.43577585  0.31110772    -0.25160
C54         C  0.43401612  0.03517411  0.28784325    -0.06080
N55         N  0.98078536  0.40681672  0.32694087    -0.46270
N56         N  0.07964351  0.03605829  0.15499250    -0.46490
C57         C  0.44145369  0.04887618  0.32370429     0.42820
N58         N  0.46534426  0.01529071  0.20127877     0.01690
N59         N  0.06182934  0.01212038  0.31236780    -0.25180
N60         N  0.46120073  0.43468659  0.27875602    -0.25680
N61         N  0.08773180  0.01266933  0.28829411     0.01330
H62         H  0.05061908  0.04352431  0.35971957     0.07220
H63         H  0.13998086  0.04278986  0.21961221     0.07260
N64         N  0.99146334  0.01505124  0.17744734    -0.25730
N65         N  0.09068645  0.43644576  0.20668637    -0.25340
N66         N  0.98157394  0.01089160  0.30929568     0.01700
C67         C  0.44579284  0.39929286  0.15957028     0.43100
C68         C  0.07304618  0.41168887  0.33599564    -0.06590
N69         N  0.09221500  0.01339917  0.20788530    -0.25340
H70         H  0.13309025  0.40170584  0.22182130     0.07240
N71         N  0.43774551  0.41493051  0.19127402    -0.46560
H72         H  0.05927094  0.40698381  0.36113802     0.07230
C73         C  0.10030385  0.05482423  0.32498938     0.42930
C74         C  0.43983570  0.40648727  0.28212215    -0.06090
Co75       Co  0.02282237  0.47331043  0.31032353     0.73820
N76         N  0.11452272  0.41332020  0.29211642    -0.46280
C77         C  0.45775815  0.06231443  0.17002874     0.43200
N78         N  0.47087814  0.03211444  0.33595612    -0.46270
Co79       Co  0.09036446  0.47481568  0.24714088     0.73890
C80         C  0.11693374  0.03831482  0.20272565    -0.06590
C81         C  0.47904582  0.41538867  0.14710651    -0.06160
N82         N  0.45971096  0.01163495  0.28146751    -0.25680
N83         N  0.07136262  0.40843567  0.15816343    -0.46450
H84         H  0.00676450  0.05009898  0.13470312     0.07200
C85         C  0.06733291  0.03791758  0.33663746    -0.06570
Cl86       Cl  0.02603813  0.47479414  0.24364448    -0.49570
C87         C  0.10637188  0.39622698  0.32269469     0.42960
H88         H  0.41094703  0.03942068  0.27100018     0.07170
N89         N  0.11121424  0.03797531  0.29473131    -0.46280
C90         C  0.11228171  0.30959069  0.11053106     0.03480
C91         C  0.09631833  0.33899437  0.12788487    -0.12670
C92         C  0.11412500  0.35760650  0.15516754     0.00980
C93         C  0.14676468  0.34524385  0.16744292    -0.11190
C94         C  0.16249359  0.31543765  0.15203474     0.03470
C95         C  0.14641040  0.29908285  0.12210133    -0.10620
H96         H  0.06976488  0.34738990  0.12076003     0.09070
H97         H  0.16014008  0.35902313  0.18909388     0.06600
H98         H  0.16055980  0.27812248  0.10841941     0.06440
C99         C  0.36572613  0.06791741  0.38796292     0.03480
C100        C  0.39702180  0.05261702  0.37395095    -0.12670
C101        C  0.41521875  0.06883145  0.34527223     0.00980
C102        C  0.40180943  0.10027948  0.33078731    -0.11190
C103        C  0.37094467  0.11594973  0.34471689     0.03470
C104        C  0.35341591  0.10007916  0.37383695    -0.10620
H105        H  0.40527231  0.02673861  0.38312074     0.09070
H106        H  0.41390357  0.11114309  0.30669284     0.06600
H107        H  0.32812179  0.11060736  0.38291288     0.06440
C108        C  0.10947448  0.14092754  0.37648314     0.03480
C109        C  0.13697384  0.15674476  0.35600570    -0.12670
C110        C  0.15566148  0.13750621  0.32967484     0.00980
C111        C  0.14388778  0.10378636  0.31990922    -0.11190
C112        C  0.11600008  0.08795976  0.33870200     0.03470
C113        C  0.10177798  0.10505427  0.36909202    -0.10620
H114        H  0.14430730  0.18408736  0.35968910     0.09070
H115        H  0.15648542  0.08970248  0.29784279     0.06600
H116        H  0.08426407  0.09014943  0.38620516     0.06440
C117        C  0.18163808  0.06814760  0.10047029     0.03480
C118        C  0.15071412  0.05450179  0.11662966    -0.12670
C119        C  0.13445620  0.07233881  0.14548621     0.00980
C120        C  0.14894205  0.10424809  0.15799567    -0.11190
C121        C  0.17863256  0.11923945  0.14106240     0.03470
C122        C  0.19407168  0.10180851  0.11135613    -0.10620
H123        H  0.14152687  0.02819137  0.10946592     0.09070
H124        H  0.13853938  0.11623522  0.18248369     0.06600
H125        H  0.21822359  0.11236965  0.09964778     0.06440
C126        C  0.35228409  0.14232104  0.32264982     0.42810
N127        N  0.31241008  0.18074122  0.30924846     0.01700
C128        C  0.21570316  0.17878587  0.14875895    -0.06180
H129        H  0.34934503  0.20252664  0.13271076     0.07190
C130        C  0.33810566  0.31693327  0.20394587    -0.06530
Co131      Co  0.27603016  0.16070730  0.24038050     0.74180
N132        N  0.31610119  0.18962570  0.17772696    -0.25710
Co133      Co  0.27715903  0.22825512  0.17790460     0.74070
C134        C  0.35323921  0.30946292  0.16866554     0.42910
N135        N  0.31381634  0.28594625  0.28943485     0.01320
N136        N  0.31499523  0.26911084  0.18153052     0.01420
N137        N  0.21531453  0.13751374  0.19246623    -0.46550
H138        H  0.34280304  0.11136349  0.27007294     0.07180
N139        N  0.31602028  0.16357137  0.20127018     0.01710
N140        N  0.23807844  0.26656898  0.18074772     0.01450
C141        C  0.19481063  0.30095397  0.16866930     0.43050
N142        N  0.31351715  0.26006658  0.31318514    -0.25160
C143        C  0.20713867  0.13921886  0.28149322    -0.06080
N144        N  0.33453647  0.17098956  0.33530039    -0.46270
N145        N  0.21266022  0.27225823  0.15679089    -0.46490
C146        C  0.18772818  0.15251707  0.31287906     0.42820
N147        N  0.23852730  0.16282349  0.19959462     0.01690
N148        N  0.23675970  0.26202925  0.31322132    -0.25180
N149        N  0.31331346  0.15890766  0.28136843    -0.25680
N150        N  0.23641142  0.28658984  0.28814384     0.01330
H151        H  0.20931046  0.25749756  0.36434779     0.07220
H152        H  0.20499644  0.33434387  0.22021334     0.07260
N153        N  0.23934460  0.18753403  0.17467982    -0.25730
N154        N  0.31453758  0.29101942  0.20938425    -0.25340
N155        N  0.23487810  0.18338415  0.30590361     0.01700
C156        C  0.36057508  0.15283434  0.16690324     0.43100
C157        C  0.34033159  0.26490043  0.33644285    -0.06590
N158        N  0.23779104  0.28958453  0.20770888    -0.25340
H159        H  0.34123970  0.34024108  0.22073657     0.07240
N160        N  0.34238525  0.14089351  0.19585520    -0.46560
H161        H  0.34646589  0.24790528  0.35893849     0.07230
C162        C  0.19755724  0.30435428  0.32668557     0.42930
C163        C  0.33797397  0.13419275  0.28712079    -0.06090
Co164      Co  0.27441605  0.22135055  0.31124743     0.73820
N165        N  0.33994604  0.30874875  0.29506007    -0.46280
C166        C  0.19926182  0.14586377  0.16125515     0.43200
N167        N  0.20659834  0.17973627  0.32678360    -0.46270
Co168      Co  0.27562291  0.28873191  0.24874665     0.73890
C169        C  0.21129963  0.31239268  0.20252310    -0.06590
C170        C  0.34321824  0.18522975  0.15497138    -0.06160
N171        N  0.23577238  0.16015119  0.27914898    -0.25680
N172        N  0.33700336  0.27994878  0.15582096    -0.46450
H173        H  0.21158119  0.19286499  0.12380139     0.07200
C174        C  0.21333247  0.27121345  0.33915354    -0.06570
Cl175      Cl  0.27592690  0.22478327  0.24455157    -0.49570
C176        C  0.35772491  0.29733029  0.32436567     0.42960
H177        H  0.20053381  0.11793265  0.26305815     0.07170
N178        N  0.21374134  0.31235800  0.29534291    -0.46280
C179        C  0.26856551  0.48132767  0.47490113     0.00920
C180        C  0.27363068  0.47381514  0.51134273     0.00920
C181        C  0.02107574  0.23049075  0.97389420     0.00920
C182        C  0.02014554  0.23371422  0.01084133     0.00920
C183        C  0.02671278  0.22689174  0.47716104     0.00920
C184        C  0.02600073  0.22687999  0.51425610     0.00920
C185        C  0.26684246  0.46925791  0.01436713     0.00920
C186        C  0.26900749  0.47044874  0.97733900     0.00920
C187        C  0.35813493  0.39272844  0.87778641     0.03480
C188        C  0.39157635  0.40502063  0.86663145    -0.12670
C189        C  0.40885349  0.38986634  0.83684847     0.00980
C190        C  0.39377538  0.36050574  0.81958173    -0.11190
C191        C  0.36106303  0.34696795  0.83108691     0.03470
C192        C  0.34271182  0.36397385  0.85924929    -0.10620
H193        H  0.40390144  0.42679337  0.88098079     0.09070
H194        H  0.40770343  0.34818562  0.79726601     0.06600
H195        H  0.31642318  0.35482930  0.86663127     0.06440
C196        C  0.43186606  0.13411453  0.88998869     0.03480
C197        C  0.40150268  0.14928461  0.87399783    -0.12670
C198        C  0.38441028  0.13256671  0.84490329     0.00980
C199        C  0.39800272  0.10082510  0.83120869    -0.11190
C200        C  0.42796275  0.08510908  0.84666108     0.03470
C201        C  0.44407593  0.10110973  0.87682235    -0.10620
H202        H  0.39312224  0.17564235  0.88182475     0.09070
H203        H  0.38684150  0.08970399  0.80662925     0.06600
H204        H  0.46812958  0.08960206  0.88768271     0.06440
C205        C  0.19042882  0.05999273  0.87852172     0.03480
C206        C  0.15783485  0.04848483  0.86417501    -0.12670
C207        C  0.14184438  0.06640824  0.83548932     0.00980
C208        C  0.15788111  0.09695836  0.82199797    -0.11190
C209        C  0.19003350  0.10931966  0.83638539     0.03470
C210        C  0.20654627  0.09043586  0.86431193    -0.10620
H211        H  0.14536441  0.02492576  0.87488382     0.09070
H212        H  0.14541714  0.11116743  0.80014655     0.06600
H213        H  0.23214939  0.09886743  0.87456693     0.06440
C214        C  0.11508396  0.31909085  0.88692821     0.03480
C215        C  0.10350391  0.35232079  0.87450791    -0.12670
C216        C  0.12156190  0.36954770  0.84648572     0.00980
C217        C  0.15231372  0.35418158  0.83186693    -0.11190
C218        C  0.16533886  0.32210406  0.84516831     0.03470
C219        C  0.14649320  0.30451149  0.87239297    -0.10620
H220        H  0.07870930  0.36328990  0.88439549     0.09070
H221        H  0.16487448  0.36609440  0.80856112     0.06600
H222        H  0.15469039  0.27814590  0.88006715     0.06440
C223        C  0.11511428  0.13349381  0.60134303     0.03480
C224        C  0.14638498  0.14783712  0.61674633    -0.12670
C225        C  0.16427289  0.13012315  0.64455897     0.00980
C226        C  0.15034778  0.09843895  0.65774556    -0.11190
C227        C  0.11961012  0.08365047  0.64275762     0.03470
C228        C  0.10269911  0.10056245  0.61389172    -0.10620
H229        H  0.15513532  0.17411600  0.60935202     0.09070
H230        H  0.16207685  0.08652039  0.68147876     0.06600
H231        H  0.07815259  0.08955639  0.60339555     0.06440
C232        C  0.35295451  0.05439617  0.61777261     0.03480
C233        C  0.38318694  0.03976054  0.63385923    -0.12670
C234        C  0.40323845  0.05913124  0.65902923     0.00980
C235        C  0.39132549  0.09256921  0.67034523    -0.11190
C236        C  0.36076130  0.10737001  0.65490464     0.03470
C237        C  0.34286780  0.08882424  0.62742712    -0.10620
H238        H  0.39098521  0.01308827  0.62675530     0.09070
H239        H  0.40596848  0.10715101  0.69076958     0.06600
H240        H  0.32049206  0.10073182  0.61389630     0.06440
C241        C  0.34647242  0.31476693  0.81417491     0.42810
N242        N  0.31557430  0.26793372  0.80611111     0.01700
C243        C  0.31464825  0.15920895  0.65515396    -0.06180
H244        H  0.30877232  0.28948836  0.62331722     0.07190
C245        C  0.18690779  0.29008965  0.70268210    -0.06530
Co246      Co  0.33934192  0.22697533  0.74070031     0.74180
N247        N  0.31273334  0.26306541  0.67484655    -0.25710
Co248      Co  0.27182879  0.22524266  0.67735002     0.74070
C249        C  0.19916531  0.30758585  0.66989449     0.42910
N250        N  0.21157608  0.26389249  0.78709252     0.01320
N251        N  0.23296776  0.26367012  0.68064235     0.01420
N252        N  0.35889957  0.16002998  0.69668532    -0.46550
H253        H  0.38157531  0.30237068  0.76458152     0.07180
N254        N  0.33728959  0.26404139  0.70020131     0.01710
N255        N  0.23115987  0.18718354  0.67982293     0.01450
C256        C  0.19126688  0.14861228  0.66633658     0.43050
N257        N  0.23629655  0.26458728  0.81227450    -0.25160
C258        C  0.36683823  0.16617479  0.78752690    -0.06080
N259        N  0.31903496  0.29590408  0.82745401    -0.46270
N260        N  0.22045181  0.16547724  0.65362685    -0.46490
C261        C  0.35869447  0.15216572  0.82295424     0.42820
N262        N  0.33674774  0.18693492  0.70129630     0.01690
N263        N  0.24066878  0.18797885  0.81191960    -0.25180
N264        N  0.33914613  0.26719434  0.77968098    -0.25680
N265        N  0.21477093  0.18672387  0.78789580     0.01330
H266        H  0.25497224  0.15490348  0.85675680     0.07220
H267        H  0.16067191  0.15908765  0.71877342     0.07260
N268        N  0.31072127  0.18678444  0.67738326    -0.25730
N269        N  0.20948249  0.26324799  0.70716027    -0.25340
N270        N  0.31966608  0.19112552  0.80927300     0.01700
C271        C  0.35554898  0.30199094  0.66172557     0.43100
C272        C  0.22654709  0.28834828  0.83764596    -0.06590
N273        N  0.20943566  0.18675114  0.70774775    -0.25340
H274        H  0.16491558  0.29634424  0.72037190     0.07240
N275        N  0.36320929  0.28655597  0.69329440    -0.46560
H276        H  0.24027069  0.29333683  0.86281834     0.07230
C277        C  0.20617346  0.14160089  0.82148915     0.42930
C278        C  0.36002373  0.29574152  0.78262114    -0.06090
Co279      Co  0.27817010  0.22800660  0.81078973     0.73820
N280        N  0.18514582  0.28601969  0.79365117    -0.46280
C281        C  0.34662402  0.14150541  0.66789228     0.43200
N282        N  0.32961035  0.16938953  0.83539563    -0.46270
Co283      Co  0.21076491  0.22506535  0.74755546     0.73890
C284        C  0.18387956  0.16286744  0.70197723    -0.06590
C285        C  0.32229867  0.28592921  0.64878270    -0.06160
N286        N  0.34161591  0.19024957  0.78155155    -0.25680
N287        N  0.22786042  0.28983849  0.65775191    -0.46450
H288        H  0.29702623  0.15268318  0.63305350     0.07200
C289        C  0.23750363  0.16056622  0.83436816    -0.06570
Cl290      Cl  0.27501336  0.22630313  0.74407571    -0.49570
C291        C  0.19289006  0.30307952  0.82462679     0.42960
H292        H  0.38985066  0.16149332  0.77065109     0.07170
N293        N  0.19341976  0.15933809  0.79271671    -0.46280
C294        C  0.43357610  0.31912945  0.60023867     0.03480
C295        C  0.40133665  0.30495906  0.61328969    -0.12670
C296        C  0.38301371  0.32151326  0.64177677     0.00980
C297        C  0.39733208  0.35207111  0.65771615    -0.11190
C298        C  0.42888391  0.36699450  0.64473239     0.03470
C299        C  0.44633759  0.35107435  0.61535621    -0.10620
H300        H  0.39226997  0.27935172  0.60372114     0.09070
H301        H  0.38512381  0.36294304  0.68187787     0.06600
H302        H  0.47157496  0.36180323  0.60648195     0.06440
C303        C  0.19097448  0.38885063  0.61139080     0.03480
C304        C  0.20248391  0.35604954  0.62466015    -0.12670
C305        C  0.18533823  0.34027631  0.65396626     0.00980
C306        C  0.15535948  0.35632421  0.66886481    -0.11190
C307        C  0.14294103  0.38867869  0.65600911     0.03470
C308        C  0.16132091  0.40537329  0.62780520    -0.10620
H309        H  0.22506554  0.34288927  0.61242241     0.09070
H310        H  0.14156682  0.34337988  0.69060870     0.06600
H311        H  0.15270297  0.43118790  0.61887028     0.06680
C312        C  0.44753832  0.05887889  0.82488042     0.42810
N313        N  0.48740800  0.02047234  0.81110313     0.01700
C314        C  0.08458799  0.02364320  0.65088782    -0.06180
H315        H  0.44896558  0.99570787  0.63688927     0.07190
C316        C  0.46262634  0.38522383  0.70250946    -0.06530
Co317      Co  0.02403095  0.04085050  0.74277526     0.74180
N318        N  0.48442116  0.01098381  0.67970017    -0.25710
Co319      Co  0.02442815  0.47343783  0.67891456     0.74070
C320        C  0.44767987  0.39327012  0.66728076     0.42910
N321        N  0.48658045  0.41566930  0.78880464     0.01320
N322        N  0.48710702  0.43232768  0.68092529     0.01420
N323        N  0.08447192  0.06509240  0.69501456    -0.46550
H324        H  0.45707108  0.08974237  0.77270724     0.07180
N325        N  0.48411453  0.03694370  0.70372359     0.01710
N326        N  0.06458758  0.43591813  0.68184205     0.01450
C327        C  0.11090290  0.40430961  0.67271775     0.43050
N328        N  0.48699638  0.44145911  0.81300975    -0.25160
C329        C  0.09094588  0.06468009  0.78653049    -0.06080
N330        N  0.46526338  0.03026465  0.83730094    -0.46270
N331        N  0.09201315  0.43178087  0.65969820    -0.46490
C332        C  0.10906155  0.05246295  0.81903664     0.42820
N333        N  0.06182243  0.03933606  0.70209898     0.01690
N334        N  0.06374390  0.43967005  0.81361972    -0.25180
N335        N  0.48649917  0.04223963  0.78348521    -0.25680
N336        N  0.06405415  0.41515452  0.78816435     0.01330
H337        H  0.09148582  0.44392664  0.86462698     0.07220
H338        H  0.09924428  0.37053526  0.72312383     0.07260
N339        N  0.06133466  0.01462477  0.67685010    -0.25730
N340        N  0.48694041  0.41044683  0.70844936    -0.25340
N341        N  0.06447054  0.01890787  0.80859408     0.01700
C342        C  0.43676048  0.04436397  0.67274364     0.43100
C343        C  0.45990749  0.43718588  0.83585516    -0.06590
N344        N  0.06436931  0.41283841  0.70842714    -0.25340
H345        H  0.45849388  0.36215278  0.71910612     0.07240
N346        N  0.45598128  0.05772280  0.70043626    -0.46560
H347        H  0.45378406  0.45444526  0.85837717     0.07230
C348        C  0.10331302  0.39732016  0.82593183     0.42930
C349        C  0.46182697  0.06691242  0.78946191    -0.06090
Co350      Co  0.02572498  0.48020198  0.81240939     0.73820
N351        N  0.45992906  0.39336391  0.79379474    -0.46280
C352        C  0.10041579  0.05682234  0.66355510     0.43200
N353        N  0.09120028  0.02399753  0.83117493    -0.46270
Co354      Co  0.02536861  0.41293164  0.74848191     0.73890
C355        C  0.09254090  0.39171769  0.70493309    -0.06590
C356        C  0.45565088  0.01350867  0.65881128    -0.06160
N357        N  0.06369032  0.04223832  0.78222708    -0.25680
N358        N  0.46479398  0.42231389  0.65500262    -0.46450
H359        H  0.08862995  0.00964971  0.62567209     0.07200
C360        C  0.08740007  0.43038551  0.83916172    -0.06570
Cl361      Cl  0.02489608  0.47685041  0.74566781    -0.49570
C362        C  0.44207631  0.40523878  0.82309680     0.42960
H363        H  0.09705607  0.08664759  0.76905717     0.07170
N364        N  0.08686582  0.38945231  0.79467388    -0.46280
C365        C  0.24358938  0.02993147  0.96067151    -0.11920
C366        C  0.24571408  0.99325055  0.95421535     0.05090
C367        C  0.22911515  0.47910032  0.92292075    -0.07200
C368        C  0.21155109  0.00164470  0.89916820    -0.07950
C369        C  0.20877998  0.03805099  0.90594730    -0.02500
C370        C  0.22448844  0.05236763  0.93756224     0.04320
N371        N  0.22072936  0.08914438  0.94704938     0.66820
H372        H  0.25694648  0.04125750  0.98389307     0.15720
H373        H  0.19990795  0.99046201  0.87488724     0.15430
N374        N  0.22997648  0.44196278  0.91445980     0.74530
O375        O  0.24497905  0.10482192  0.96448117    -0.38920
O376        O  0.19161724  0.10490767  0.94187687    -0.38860
O377        O  0.21991067  0.41963213  0.93745295    -0.39570
O378        O  0.23552414  0.43181227  0.88242131    -0.39630
C379        C  0.33982702  0.44876191  0.90818299    -0.11920
C380        C  0.33870920  0.41156444  0.90721729     0.05090
C381        C  0.31791069  0.39360549  0.93320263    -0.07200
C382        C  0.29642467  0.41328494  0.95682090    -0.07950
C383        C  0.29697333  0.45037870  0.95711336    -0.02500
C384        C  0.32036789  0.46823383  0.93361392     0.04320
N385        N  0.32438803  0.50606649  0.93509604     0.66820
H386        H  0.35572407  0.46300556  0.88872004     0.15720
H387        H  0.27822305  0.39945878  0.97420025     0.15430
N388        N  0.31844561  0.35570889  0.93629665     0.74530
O389        O  0.33109467  0.52323849  0.90678143    -0.38920
O390        O  0.32560512  0.02184188  0.96520703    -0.38860
O391        O  0.34748551  0.33910838  0.93417117    -0.39570
O392        O  0.29066977  0.33917852  0.94532048    -0.39630
C393        C  0.05563306  0.15676142  0.58219689    -0.11920
C394        C  0.09265999  0.15520714  0.57645677     0.05090
C395        C  0.10755294  0.17647976  0.54902689    -0.07200
C396        C  0.08565433  0.20015257  0.53024259    -0.07950
C397        C  0.04855932  0.20116572  0.53530225    -0.02500
C398        C  0.03341953  0.17844651  0.56131481     0.04320
N399        N  0.99558522  0.17644938  0.56641242     0.66820
H400        H  0.04367204  0.14086853  0.60315702     0.15720
H401        H  0.09793467  0.21776490  0.51126108     0.15430
N402        N  0.14443991  0.17367248  0.53903697     0.74530
O403        O  0.98287258  0.17169782  0.59754435    -0.38920
O404        O  0.97519745  0.17422068  0.53944521    -0.38860
O405        O  0.15935384  0.14378813  0.53777284    -0.39570
O406        O  0.16087756  0.20024962  0.52701705    -0.39630
C407        C  0.46596519  0.25489318  0.52701188    -0.11920
C408        C  0.50242053  0.25193255  0.53529445     0.05090
C409        C  0.51594860  0.27219845  0.56444648    -0.07200
C410        C  0.49299996  0.29380717  0.58471022    -0.07950
C411        C  0.45685344  0.29760309  0.57573454    -0.02500
C412        C  0.44345426  0.27848734  0.54565932     0.04320
N413        N  0.40765158  0.28348916  0.53293162     0.66820
H414        H  0.45488265  0.23911032  0.50538880     0.15720
H415        H  0.50372584  0.30788932  0.60782061     0.15430
N416        N  0.05304883  0.27185109  0.57348157     0.74530
O417        O  0.39159403  0.25871529  0.51671382    -0.38920
O418        O  0.39369722  0.31384301  0.53367479    -0.38860
O419        O  0.07597813  0.27836652  0.54956470    -0.39570
O420        O  0.56258842  0.27081452  0.60611667    -0.39630
C421        C  0.08182925  0.25479903  0.95873200    -0.11920
C422        C  0.04514666  0.25330018  0.95125477     0.05090
C423        C  0.03188228  0.27317918  0.92187777    -0.07200
C424        C  0.05530297  0.29435777  0.90181453    -0.07950
C425        C  0.09159182  0.29730196  0.91061842    -0.02500
C426        C  0.10490221  0.27732821  0.93981620     0.04320
N427        N  0.14131063  0.28030924  0.95139730     0.66820
H428        H  0.09269030  0.23861367  0.97995536     0.15720
H429        H  0.04490049  0.30893731  0.87908283     0.15430
N430        N  0.99468742  0.27332922  0.91269837     0.74530
O431        O  0.15657292  0.31007037  0.95202969    -0.38920
O432        O  0.15692015  0.25406070  0.96506302    -0.38860
O433        O  0.97141018  0.27704766  0.93696458    -0.39570
O434        O  0.48528152  0.27519551  0.88006705    -0.39630
C435        C  0.49130399  0.15677411  0.90968681    -0.11920
C436        C  0.45428367  0.15573047  0.91529750     0.05090
C437        C  0.43944361  0.17797453  0.94235005    -0.07200
C438        C  0.46146693  0.20230868  0.96062212    -0.07950
C439        C  0.49840003  0.20351231  0.95460545    -0.02500
C440        C  0.51350296  0.17931806  0.92978411     0.04320
N441        N  0.05136590  0.17639228  0.92557776     0.66820
H442        H  0.50328816  0.13997801  0.88929187     0.15720
H443        H  0.44970036  0.22030638  0.98003734     0.15430
N444        N  0.40247968  0.17572818  0.95219107     0.74530
O445        O  0.07101007  0.17427180  0.95309652    -0.38920
O446        O  0.06461533  0.17029721  0.89485750    -0.38860
O447        O  0.38695582  0.14611010  0.95293154    -0.39570
O448        O  0.38635660  0.20266180  0.96409068    -0.39630
C449        C  0.27734469  0.01610768  0.56150737    -0.11920
C450        C  0.29589322  0.99545673  0.53615310     0.05090
C451        C  0.33364299  0.99352050  0.53804509    -0.07200
C452        C  0.35116294  0.01374806  0.56458460    -0.07950
C453        C  0.33245527  0.03381044  0.59042792    -0.02500
C454        C  0.29485159  0.03420457  0.58926934     0.04320
N455        N  0.27388243  0.05096169  0.61697763     0.66820
H456        H  0.24852949  0.01661049  0.56073164     0.15720
H457        H  0.37993919  0.01403775  0.56495806     0.15430
N458        N  0.35473195  0.97191741  0.51379374     0.74530
O459        O  0.24519006  0.06632565  0.60893437    -0.38920
O460        O  0.28137995  0.04638954  0.64982526    -0.38860
O461        O  0.38695200  0.96569278  0.52092349    -0.39570
O462        O  0.34187424  0.45907062  0.48515170    -0.39630
C463        C  0.24861109  0.40506233  0.58210204    -0.11920
C464        C  0.21126562  0.40647652  0.58186928     0.05090
C465        C  0.19434940  0.42637578  0.55469995    -0.07200
C466        C  0.21509385  0.44834555  0.53272464    -0.07950
C467        C  0.25237647  0.44625027  0.53170931    -0.02500
C468        C  0.26902935  0.42314584  0.55650382     0.04320
N469        N  0.30675833  0.41838666  0.55684353     0.66820
H470        H  0.26235634  0.38989370  0.60249761     0.15720
H471        H  0.20167734  0.46824457  0.51744464     0.15430
N472        N  0.15663364  0.42374537  0.54831170     0.74530
O473        O  0.32373455  0.42180062  0.58606316    -0.38920
O474        O  0.32158151  0.40344674  0.53029447    -0.38860
O475        O  0.14094275  0.39446792  0.55222709    -0.39570
O476        O  0.14025596  0.44857812  0.53293764    -0.39630
C477        C  0.25954058  0.01520509  0.06256526    -0.11920
C478        C  0.24329126  0.99400777  0.03589586     0.05090
C479        C  0.20612321  0.99834597  0.02998778    -0.07200
C480        C  0.18726455  0.02393929  0.05012015    -0.07950
C481        C  0.20371509  0.04436809  0.07719248    -0.02500
C482        C  0.24041536  0.03939288  0.08365694     0.04320
N483        N  0.25853519  0.05700242  0.11281124     0.66820
H484        H  0.28755605  0.01282018  0.06796351     0.15720
H485        H  0.15904517  0.02720711  0.04535822     0.15430
N486        N  0.18677506  0.97709325  0.00433046     0.74530
O487        O  0.24651442  0.05498339  0.14454502    -0.38920
O488        O  0.28924308  0.06963959  0.10791888    -0.38860
O489        O  0.19336120  0.44459024  0.00083443    -0.39570
O490        O  0.16042633  0.98989385  0.98784842    -0.39630
C491        C  0.10310522  0.19409128  0.41802578    -0.11920
C492        C  0.08913154  0.16176020  0.40483653     0.05090
C493        C  0.05574784  0.15066688  0.41908839    -0.07200
C494        C  0.04051127  0.16944560  0.44782359    -0.07950
C495        C  0.05158657  0.20379622  0.45626597    -0.02500
C496        C  0.08342709  0.21675847  0.44064251     0.04320
N497        N  0.09665260  0.25219905  0.44727807     0.66820
H498        H  0.12924466  0.20283008  0.41028182     0.15720
H499        H  0.01698741  0.15890753  0.46053576     0.15430
N500        N  0.03424965  0.12398169  0.40202142     0.74530
O501        O  0.12116254  0.26473330  0.42784996    -0.38920
O502        O  0.08495232  0.27096388  0.47288697    -0.38860
O503        O  0.01700488  0.10225604  0.42097054    -0.39570
O504        O  0.02730783  0.12625435  0.36877440    -0.39630
C505        C  0.31284636  0.03437055  0.46861996    -0.11920
C506        C  0.28957592  0.00915995  0.45263045     0.05090
C507        C  0.28873472  0.00941569  0.41402076    -0.07200
C508        C  0.31510400  0.02714540  0.39438362    -0.07950
C509        C  0.34158811  0.04708275  0.41137767    -0.02500
C510        C  0.34030054  0.05130294  0.44917009     0.04320
N511        N  0.36648906  0.07225294  0.46824950     0.66820
H512        H  0.30973454  0.04227530  0.49617804     0.15720
H513        H  0.31378656  0.02684126  0.36513949     0.15430
N514        N  0.25871749  0.49685830  0.39394781     0.74530
O515        O  0.36070770  0.08252042  0.50020925    -0.38920
O516        O  0.39711212  0.07690230  0.45512132    -0.38860
O517        O  0.23042391  0.01469053  0.39471810    -0.39570
O518        O  0.26345611  0.47529061  0.36825665    -0.39630
C519        C  0.07275830  0.23663649  0.05024218    -0.11920
C520        C  0.04652756  0.25538653  0.03149309     0.05090
C521        C  0.04426792  0.29245013  0.03649442    -0.07200
C522        C  0.06806984  0.30926559  0.06007655    -0.07950
C523        C  0.09240641  0.29021602  0.08130793    -0.02500
C524        C  0.09515608  0.25319762  0.07527304     0.04320
N525        N  0.11887479  0.23129173  0.09535563     0.66820
H526        H  0.07466651  0.20820808  0.04669280     0.15720
H527        H  0.06665156  0.33777460  0.06231969     0.15430
N528        N  0.01676116  0.31339465  0.02049117     0.74530
O529        O  0.11301028  0.22553182  0.12832831    -0.38920
O530        O  0.14222701  0.21339136  0.07895736    -0.38860
O531        O  0.50130310  0.33686554  0.03912902    -0.39570
O532        O  0.01246207  0.31330152  0.98682526    -0.39630
C533        C  0.45925191  0.20202814  0.08547475    -0.11920
C534        C  0.46341795  0.16504761  0.08400567     0.05090
C535        C  0.48524993  0.15033768  0.05649047    -0.07200
C536        C  0.50352270  0.17306793  0.03290230    -0.07950
C537        C  0.49811678  0.20984697  0.03392559    -0.02500
C538        C  0.47479062  0.22415424  0.05990101     0.04320
N539        N  0.46512700  0.26081732  0.05948680     0.66820
H540        H  0.44299423  0.21406136  0.10629986     0.15720
H541        H  0.52155972  0.16195416  0.01307841     0.15430
N542        N  0.48815960  0.11277194  0.05108747     0.74530
O543        O  0.45317891  0.27406517  0.03077319    -0.38920
O544        O  0.46164623  0.27773062  0.08876963    -0.38860
O545        O  0.46072195  0.09352216  0.05200153    -0.39570
O546        O  0.51714219  0.09945810  0.04049317    -0.39630
C547        C  0.26219577  0.42703585  0.43748460    -0.11920
C548        C  0.24554517  0.45598166  0.45417464     0.05090
C549        C  0.20859986  0.46131659  0.44851473    -0.07200
C550        C  0.18920157  0.43498557  0.43004266    -0.07950
C551        C  0.20596315  0.40717175  0.41093598    -0.02500
C552        C  0.24363460  0.40445760  0.41380463     0.04320
N553        N  0.26415521  0.38214985  0.39024703     0.66820
H554        H  0.29075209  0.42420733  0.44006267     0.15720
H555        H  0.16061095  0.43738299  0.42933908     0.15430
N556        N  0.19051419  0.49341585  0.45976355     0.74530
O557        O  0.26022446  0.38446578  0.35650545    -0.38920
O558        O  0.29064264  0.36557265  0.40241882    -0.38860
O559        O  0.20752163  0.51984360  0.47164105    -0.39570
O560        O  0.15715135  0.49590052  0.45688170    -0.39630
C561        C  0.32596528  0.46070872  0.04486078    -0.11920
C562        C  0.29273608  0.44681562  0.03515851     0.05090
C563        C  0.28465702  0.41190592  0.04537877    -0.07200
C564        C  0.31046069  0.39131324  0.06274548    -0.07950
C565        C  0.34218078  0.40621698  0.07676121    -0.02500
C566        C  0.34885516  0.44250990  0.06835992     0.04320
N567        N  0.37574271  0.46294166  0.08631924     0.66820
H568        H  0.33266429  0.48743257  0.03695935     0.15720
H569        H  0.30413063  0.36379264  0.06669865     0.15430
N570        N  0.24988060  0.39735375  0.03987881     0.74530
O571        O  0.39527367  0.48356480  0.06838701    -0.38920
O572        O  0.37504363  0.46589400  0.12027508    -0.38860
O573        O  0.24652112  0.36649835  0.02707878    -0.39570
O574        O  0.22389337  0.41120279  0.05618334    -0.39630
C575        C  0.50518888  0.28629294  0.45562268    -0.11920
C576        C  0.50252816  0.24920598  0.45461879     0.05090
C577        C  0.47815992  0.23340388  0.43030690    -0.07200
C578        C  0.46040414  0.25425004  0.40528746    -0.07950
C579        C  0.46275616  0.29127582  0.40601761    -0.02500
C580        C  0.48465473  0.30761860  0.43254029     0.04320
N581        N  0.48537831  0.34536880  0.43745253     0.66820
H582        H  0.52254809  0.29874914  0.47523867     0.15720
H583        H  0.44371028  0.24107300  0.38554259     0.15430
N584        N  0.46873464  0.19673015  0.43237802     0.74530
O585        O  0.51347729  0.36053251  0.44801022    -0.38920
O586        O  0.45694309  0.36300402  0.43588964    -0.38860
O587        O  0.45702041  0.18455150  0.46170300    -0.39570
O588        O  0.96479036  0.17876288  0.40380501    -0.39630
C589        C  0.44219121  0.81118935  0.37830471     0.03480
C590        C  0.40830772  0.79903627  0.36789380    -0.12670
C591        C  0.39070204  0.81352000  0.33820963     0.00980
C592        C  0.40557238  0.84264262  0.32063790    -0.11190
C593        C  0.43841912  0.85640154  0.33165101     0.03470
C594        C  0.45717882  0.83987470  0.35970971    -0.10620
H595        H  0.39607812  0.77746023  0.38236641     0.09070
H596        H  0.39152823  0.85449386  0.29829722     0.06600
H597        H  0.48361702  0.84901299  0.36665174     0.06440
C598        C  0.36565101  0.88412566  0.10153914     0.03480
C599        C  0.40128238  0.89362204  0.10985404    -0.12670
C600        C  0.41884261  0.87869391  0.13961720     0.00980
C601        C  0.40370532  0.84973384  0.15714661    -0.11190
C602        C  0.37073658  0.83650436  0.14639913     0.03470
C603        C  0.35130572  0.85447914  0.11994218    -0.10620
H604        H  0.41470592  0.91451278  0.09561947     0.09070
H605        H  0.41659766  0.83888314  0.18079580     0.06600
H606        H  0.32400695  0.84642345  0.11635712     0.06440
C607        C  0.18374731  0.88376132  0.38640240     0.03480
C608        C  0.19436571  0.84910848  0.37641822    -0.12670
C609        C  0.17791630  0.83145566  0.34729042     0.00980
C610        C  0.14758821  0.84607886  0.33144219    -0.11190
C611        C  0.13410031  0.87838627  0.34367232     0.03470
C612        C  0.15279210  0.89754387  0.36998870    -0.10620
H613        H  0.21730048  0.83699770  0.38878484     0.09070
H614        H  0.13578811  0.83338248  0.30799215     0.06600
H615        H  0.14442548  0.92446200  0.37510058     0.06440
C616        C  0.44444693  0.64335013  0.11165109     0.03480
C617        C  0.41044410  0.65366252  0.12305168    -0.12670
C618        C  0.39364149  0.63738316  0.15229628     0.00980
C619        C  0.40932180  0.60755935  0.16794273    -0.11190
C620        C  0.44231775  0.59517156  0.15540748     0.03470
C621        C  0.46047009  0.61424661  0.12849781    -0.10620
H622        H  0.39743287  0.67526760  0.10948264     0.09070
H623        H  0.39589849  0.59405254  0.18975941     0.06600
H624        H  0.48710928  0.60663955  0.12077174     0.06440
C625        C  0.45308982  0.88803328  0.31403399     0.42810
N626        N  0.98469595  0.93416247  0.30526689     0.01700
C627        C  0.48885873  0.54353022  0.15648026    -0.06180
H628        H  0.99305673  0.91149890  0.12190739     0.07190
C629        C  0.11187712  0.90837985  0.20344683    -0.06530
Co630      Co  0.46173711  0.97488441  0.23996349     0.74180
N631        N  0.98820735  0.93843090  0.17347582    -0.25710
Co632      Co  0.02941943  0.97554103  0.17688734     0.74070
C633        C  0.09895044  0.88979373  0.17145855     0.42910
N634        N  0.08858931  0.93599833  0.28595013     0.01320
N635        N  0.06739402  0.93600236  0.18004607     0.01420
N636        N  0.44432810  0.54320328  0.19767552    -0.46550
H637        H  0.41804952  0.89979879  0.26431066     0.07180
N638        N  0.46347735  0.93764505  0.19864112     0.01710
N639        N  0.07022707  0.51311972  0.18020484     0.01450
C640        C  0.10835747  0.55361670  0.16787529     0.43050
N641        N  0.06384061  0.93577525  0.31111049    -0.25160
C642        C  0.43401579  0.53517262  0.28783930    -0.06080
N643        N  0.98078417  0.90681723  0.32694340    -0.46270
N644        N  0.07964211  0.53605924  0.15498978    -0.46490
C645        C  0.44145331  0.54887514  0.32370011     0.42820
N646        N  0.46534345  0.51528922  0.20127540     0.01690
N647        N  0.06182877  0.51212077  0.31236472    -0.25180
N648        N  0.46119983  0.93468790  0.27875895    -0.25680
N649        N  0.08773122  0.51267011  0.28829105     0.01330
H650        H  0.05061825  0.54352416  0.35971681     0.07220
H651        H  0.13997900  0.54279215  0.21960977     0.07260
N652        N  0.99146252  0.51505015  0.17744396    -0.25730
N653        N  0.09068571  0.93644499  0.20668919    -0.25340
N654        N  0.98157370  0.51089068  0.30929213     0.01700
C655        C  0.44579220  0.89929444  0.15957320     0.43100
C656        C  0.07304475  0.91168761  0.33599799    -0.06590
N657        N  0.09221417  0.51340000  0.20788237    -0.25340
H658        H  0.13308910  0.90170444  0.22182370     0.07240
N659        N  0.43774468  0.91493228  0.19127681    -0.46560
H660        H  0.05926933  0.90698241  0.36114024     0.07230
C661        C  0.10030285  0.55482480  0.32498665     0.42930
C662        C  0.43983452  0.90648873  0.28212468    -0.06090
Co663      Co  0.02282218  0.97331063  0.31032665     0.73820
N664        N  0.11452121  0.91331841  0.29211870    -0.46280
C665        C  0.45775655  0.56231291  0.17002542     0.43200
N666        N  0.47087776  0.53211372  0.33595229    -0.46270
Co667      Co  0.09036440  0.97481486  0.24714382     0.73890
C668        C  0.11693212  0.53831648  0.20272303    -0.06590
C669        C  0.47904540  0.91538986  0.14710966    -0.06160
N670        N  0.45971075  0.51163357  0.28146395    -0.25680
N671        N  0.07136153  0.90843565  0.15816591    -0.46450
H672        H  0.00676314  0.55009820  0.13469982     0.07200
C673        C  0.06733206  0.53791785  0.33663458    -0.06570
Cl674      Cl  0.02603803  0.97479454  0.24364761    -0.49570
C675        C  0.10636999  0.89622494  0.32269671     0.42960
H676        H  0.41094670  0.53941887  0.27099614     0.07170
N677        N  0.11121344  0.53797621  0.29472848    -0.46280
C678        C  0.11228100  0.80959151  0.11053138     0.03480
C679        C  0.09631731  0.83899471  0.12788585    -0.12670
C680        C  0.11412378  0.85760642  0.15516900     0.00980
C681        C  0.14676359  0.84524385  0.16744405    -0.11190
C682        C  0.16249282  0.81543820  0.15203520     0.03470
C683        C  0.14640981  0.79908384  0.12210146    -0.10620
H684        H  0.06976380  0.84739017  0.12076118     0.09070
H685        H  0.16013888  0.85902279  0.18909529     0.06600
H686        H  0.16055958  0.77812403  0.10841906     0.06440
C687        C  0.36572439  0.56791355  0.38795730     0.03480
C688        C  0.39702046  0.55261390  0.37394561    -0.12670
C689        C  0.41521783  0.56882947  0.34526791     0.00980
C690        C  0.40180861  0.60027780  0.33078363    -0.11190
C691        C  0.37094337  0.61594723  0.34471293     0.03470
C692        C  0.35341388  0.60007535  0.37383173    -0.10620
H693        H  0.40527139  0.52673554  0.38311519     0.09070
H694        H  0.41390330  0.61114233  0.30668988     0.06600
H695        H  0.32811966  0.61060326  0.38290771     0.06440
C696        C  0.10947385  0.64092743  0.37648154     0.03480
C697        C  0.13697323  0.65674475  0.35600420    -0.12670
C698        C  0.15566064  0.63750640  0.32967300     0.00980
C699        C  0.14388674  0.60378678  0.31990702    -0.11190
C700        C  0.11599906  0.58796011  0.33869968     0.03470
C701        C  0.10177711  0.60505428  0.36908996    -0.10620
H702        H  0.14430692  0.68408724  0.35968792     0.09070
H703        H  0.15648427  0.58970308  0.29784040     0.06600
H704        H  0.08426321  0.59014926  0.38620293     0.06440
C705        C  0.18163642  0.56814928  0.10046843     0.03480
C706        C  0.15071220  0.55450370  0.11662743    -0.12670
C707        C  0.13445412  0.57234079  0.14548381     0.00980
C708        C  0.14894003  0.60425004  0.15799338    -0.11190
C709        C  0.17863080  0.61924123  0.14106036     0.03470
C710        C  0.19407011  0.60181013  0.11135429    -0.10620
H711        H  0.14152494  0.52819328  0.10946369     0.09070
H712        H  0.13853728  0.61623717  0.18248135     0.06600
H713        H  0.21822227  0.61237103  0.09964623     0.06440
C714        C  0.35228333  0.64231934  0.32264659     0.42810
N715        N  0.31240962  0.68074012  0.30924634     0.01700
C716        C  0.21570199  0.67878728  0.14875738    -0.06180
H717        H  0.34934452  0.70252698  0.13270929     0.07190
C718        C  0.33810532  0.81693332  0.20394645    -0.06530
Co719      Co  0.27602907  0.66070724  0.24037845     0.74180
N720        N  0.31610043  0.68962595  0.17772529    -0.25710
Co721      Co  0.27715845  0.72825572  0.17790358     0.74070
C722        C  0.35323910  0.80946334  0.16866618     0.42910
N723        N  0.31381590  0.78594569  0.28943464     0.01320
N724        N  0.31499480  0.76911129  0.18153026     0.01420
N725        N  0.21531300  0.63751477  0.19246426    -0.46550
H726        H  0.34280147  0.61136266  0.27006940     0.07180
N727        N  0.31601915  0.66357127  0.20126810     0.01710
N728        N  0.23807802  0.76656967  0.18074729     0.01450
C729        C  0.19481006  0.80095461  0.16866941     0.43050
N730        N  0.31351696  0.76006561  0.31318448    -0.25160
C731        C  0.20713751  0.63921910  0.28149114    -0.06080
N732        N  0.33453613  0.67098782  0.33529789    -0.46270
N733        N  0.21265977  0.77225915  0.15679057    -0.46490
C734        C  0.18772736  0.65251711  0.31287727     0.42820
N735        N  0.23852611  0.66282417  0.19959278     0.01690
N736        N  0.23675938  0.76202816  0.31322105    -0.25180
N737        N  0.31331251  0.65890694  0.28136600    -0.25680
N738        N  0.23641083  0.78658915  0.28814398     0.01330
H739        H  0.20930972  0.75749490  0.36434713     0.07220
H740        H  0.20499570  0.83434380  0.22021399     0.07260
N741        N  0.23934366  0.68753492  0.17467822    -0.25730
N742        N  0.31453703  0.79101956  0.20938427    -0.25340
N743        N  0.23487770  0.68338354  0.30590217     0.01700
C744        C  0.36057392  0.65283404  0.16690112     0.43100
C745        C  0.34033147  0.76489928  0.33644216    -0.06590
N746        N  0.23779050  0.78958480  0.20770883    -0.25340
H747        H  0.34123942  0.84024086  0.22073754     0.07240
N748        N  0.34238383  0.64089311  0.19585286    -0.46560
H749        H  0.34646591  0.74790387  0.35893756     0.07230
C750        C  0.19755608  0.80435222  0.32668586     0.42930
C751        C  0.33797283  0.63419173  0.28711764    -0.06090
Co752      Co  0.27441580  0.72134960  0.31124632     0.73820
N753        N  0.33994547  0.80874829  0.29506014    -0.46280
C754        C  0.19926023  0.64586527  0.16125335     0.43200
N755        N  0.20659797  0.67973578  0.32678220    -0.46270
Co756      Co  0.27562232  0.78873174  0.24874662     0.73890
C757        C  0.21129900  0.81239291  0.20252339    -0.06590
C758        C  0.34321748  0.68522990  0.15496969    -0.06160
N759        N  0.23577151  0.66015103  0.27914712    -0.25680
N760        N  0.33700320  0.77994944  0.15582104    -0.46450
H761        H  0.21158003  0.69286673  0.12380001     0.07200
C762        C  0.21333183  0.77121148  0.33915328    -0.06570
Cl763      Cl  0.27592631  0.72478315  0.24455050    -0.49570
C764        C  0.35772455  0.79732949  0.32436548     0.42960
H765        H  0.20053224  0.61793331  0.26305571     0.07170
N766        N  0.21374024  0.81235681  0.29534341    -0.46280
C767        C  0.26856257  0.98132854  0.47489703     0.00920
C768        C  0.27362906  0.97381956  0.51133869     0.00920
C769        C  0.02107525  0.73049200  0.97389385     0.00920
C770        C  0.02014517  0.73371534  0.01084101     0.00920
C771        C  0.02671282  0.72689088  0.47716051     0.00920
C772        C  0.02600071  0.72687907  0.51425556     0.00920
C773        C  0.26684378  0.96925750  0.01436687     0.00920
C774        C  0.26900853  0.97044818  0.97733872     0.00920
C775        C  0.35813583  0.89272851  0.87778558     0.03480
C776        C  0.39157712  0.90502075  0.86663031    -0.12670
C777        C  0.40885396  0.88986647  0.83684714     0.00980
C778        C  0.39377573  0.86050592  0.81958051    -0.11190
C779        C  0.36106349  0.84696817  0.83108592     0.03470
C780        C  0.34271255  0.86397397  0.85924854    -0.10620
H781        H  0.40390231  0.92679350  0.88097954     0.09070
H782        H  0.40770356  0.84818588  0.79726462     0.06600
H783        H  0.31642398  0.85482939  0.86663077     0.06440
C784        C  0.43186506  0.63411547  0.88998922     0.03480
C785        C  0.40150191  0.64928556  0.87399790    -0.12670
C786        C  0.38440964  0.63256743  0.84490341     0.00980
C787        C  0.39800198  0.60082546  0.83120945    -0.11190
C788        C  0.42796173  0.58510935  0.84666243     0.03470
C789        C  0.44407474  0.60111035  0.87682359    -0.10620
H790        H  0.39312163  0.67564347  0.88182441     0.09070
H791        H  0.38684094  0.58970412  0.80663003     0.06600
H792        H  0.46812825  0.58960272  0.88768433     0.06440
C793        C  0.19042907  0.55999461  0.87852195     0.03480
C794        C  0.15783484  0.54848671  0.86417596    -0.12670
C795        C  0.14184395  0.56640984  0.83549039     0.00980
C796        C  0.15788046  0.59695988  0.82199846    -0.11190
C797        C  0.19003308  0.60932133  0.83638522     0.03470
C798        C  0.20654630  0.59043768  0.86431171    -0.10620
H799        H  0.14536455  0.52492773  0.87488516     0.09070
H800        H  0.14541617  0.61116876  0.80014709     0.06600
H801        H  0.23214957  0.59886928  0.87456627     0.06440
C802        C  0.11508370  0.81909131  0.88692705     0.03480
C803        C  0.10350357  0.85232113  0.87450651    -0.12670
C804        C  0.12156155  0.86954792  0.84648426     0.00980
C805        C  0.15231346  0.85418193  0.83186566    -0.11190
C806        C  0.16533867  0.82210455  0.84516717     0.03470
C807        C  0.14649303  0.80451198  0.87239191    -0.10620
H808        H  0.07870891  0.86329024  0.88439397     0.09070
H809        H  0.16487423  0.86609472  0.80855984     0.06600
H810        H  0.15469032  0.77814646  0.88006622     0.06440
C811        C  0.11511371  0.63349331  0.60134340     0.03480
C812        C  0.14638463  0.64783666  0.61674618    -0.12670
C813        C  0.16427253  0.63012316  0.64455912     0.00980
C814        C  0.15034711  0.59843944  0.65774663    -0.11190
C815        C  0.11960925  0.58365087  0.64275915     0.03470
C816        C  0.10269830  0.60056235  0.61389291    -0.10620
H817        H  0.15513516  0.67411531  0.60935124     0.09070
H818        H  0.16207620  0.58652130  0.68148003     0.06600
H819        H  0.07815170  0.58955621  0.60339703     0.06440
C820        C  0.35295021  0.55439100  0.61778114     0.03480
C821        C  0.38318185  0.53975552  0.63386950    -0.12670
C822        C  0.40323509  0.55912825  0.65903627     0.00980
C823        C  0.39132351  0.59256752  0.67034947    -0.11190
C824        C  0.36075951  0.60736788  0.65490809     0.03470
C825        C  0.34286526  0.58882054  0.62743219    -0.10620
H826        H  0.39097892  0.51308210  0.62676882     0.09070
H827        H  0.40596769  0.60715083  0.69077182     0.06600
H828        H  0.32049070  0.60072847  0.61389974     0.06440
C829        C  0.34647271  0.81476733  0.81417381     0.42810
N830        N  0.31557432  0.76793440  0.80610984     0.01700
C831        C  0.31464809  0.65920830  0.65515399    -0.06180
H832        H  0.30877283  0.78948835  0.62331575     0.07190
C833        C  0.18690852  0.79009119  0.70267907    -0.06530
Co834      Co  0.33934195  0.72697575  0.74069932     0.74180
N835        N  0.31273378  0.76306548  0.67484510    -0.25710
Co836      Co  0.27182903  0.72524307  0.67734846     0.74070
C837        C  0.19916604  0.80758700  0.66989105     0.42910
N838        N  0.21157634  0.76389405  0.78709067     0.01320
N839        N  0.23296829  0.76367111  0.68063984     0.01420
N840        N  0.35889901  0.66002979  0.69668577    -0.46550
H841        H  0.38157574  0.80237087  0.76458054     0.07180
N842        N  0.33728989  0.76404158  0.70020001     0.01710
N843        N  0.23115972  0.68718424  0.67982160     0.01450
C844        C  0.19126672  0.64861265  0.66633615     0.43050
N845        N  0.23629660  0.76458844  0.81227288    -0.25160
C846        C  0.36683802  0.66617531  0.78752653    -0.06080
N847        N  0.31903508  0.79590468  0.82745280    -0.46270
N848        N  0.22045161  0.66547741  0.65362597    -0.46490
C849        C  0.35869402  0.65216639  0.82295392     0.42820
N850        N  0.33674762  0.68693521  0.70129570     0.01690
N851        N  0.24066838  0.68798019  0.81191827    -0.25180
N852        N  0.33914622  0.76719487  0.77967980    -0.25680
N853        N  0.21477046  0.68672527  0.78789453     0.01330
H854        H  0.25497181  0.65490519  0.85675573     0.07220
H855        H  0.16067193  0.65908893  0.71877289     0.07260
N856        N  0.31072130  0.68678449  0.67738249    -0.25730
N857        N  0.20948302  0.76324942  0.70715780    -0.25340
N858        N  0.31966574  0.69112622  0.80927211     0.01700
C859        C  0.35554931  0.80199104  0.66172422     0.43100
C860        C  0.22654692  0.78834893  0.83764472    -0.06590
N861        N  0.20943553  0.68675233  0.70774643    -0.25340
H862        H  0.16491635  0.79634611  0.72036882     0.07240
N863        N  0.36320958  0.78655619  0.69329314    -0.46560
H864        H  0.24027021  0.79333690  0.86281738     0.07230
C865        C  0.20617289  0.64160250  0.82148840     0.42930
C866        C  0.36002401  0.79574190  0.78262005    -0.06090
Co867      Co  0.27816992  0.72800756  0.81078837     0.73820
N868        N  0.18514597  0.78602104  0.79364956    -0.46280
C869        C  0.34662351  0.64150465  0.66789315     0.43200
N870        N  0.32960981  0.66939036  0.83539494    -0.46270
Co871      Co  0.21076495  0.72506681  0.74755371     0.73890
C872        C  0.18387947  0.66286851  0.70197649    -0.06590
C873        C  0.32229915  0.78592922  0.64878124    -0.06160
N874        N  0.34161575  0.69025010  0.78155082    -0.25680
N875        N  0.22786115  0.78983927  0.65774892    -0.46450
H876        H  0.29702604  0.65268196  0.63305373     0.07200
C877        C  0.23750316  0.66056779  0.83436707    -0.06570
Cl878      Cl  0.27501337  0.72630397  0.74407430    -0.49570
C879        C  0.19288994  0.80308024  0.82462560     0.42960
H880        H  0.38985057  0.66149371  0.77065093     0.07170
N881        N  0.19341916  0.65933958  0.79271579    -0.46280
C882        C  0.43357629  0.81912933  0.60023724     0.03480
C883        C  0.40133694  0.80495891  0.61328842    -0.12670
C884        C  0.38301398  0.82151327  0.64177534     0.00980
C885        C  0.39733215  0.85207135  0.65771439    -0.11190
C886        C  0.42888390  0.86699475  0.64473047     0.03470
C887        C  0.44633767  0.85107439  0.61535446    -0.10620
H888        H  0.39227036  0.77935144  0.60372011     0.09070
H889        H  0.38512383  0.86294343  0.68187602     0.06600
H890        H  0.47157504  0.86180324  0.60648015     0.06440
C891        C  0.19097534  0.88885481  0.61138984     0.03480
C892        C  0.20248445  0.85605255  0.62465717    -0.12670
C893        C  0.18533894  0.84027779  0.65396283     0.00980
C894        C  0.15535978  0.85632475  0.66886164    -0.11190
C895        C  0.14294192  0.88868012  0.65600820     0.03470
C896        C  0.16132254  0.90537699  0.62780644    -0.10620
H897        H  0.22506583  0.84289221  0.61241843     0.09070
H898        H  0.14156633  0.84337913  0.69060430     0.06600
H899        H  0.15270576  0.93119275  0.61887547     0.06680
C900        C  0.44753757  0.55887891  0.82488222     0.42810
N901        N  0.48740769  0.52047250  0.81110546     0.01700
C902        C  0.08458728  0.52364360  0.65088975    -0.06180
H903        H  0.44896293  0.49570631  0.63689414     0.07190
C904        C  0.46262621  0.88522407  0.70250744    -0.06530
Co905      Co  0.02403056  0.54085062  0.74277748     0.74180
N906        N  0.48442039  0.51098362  0.67970299    -0.25710
Co907      Co  0.02442851  0.97343770  0.67891247     0.74070
C908        C  0.44767980  0.89327041  0.66727876     0.42910
N909        N  0.48658037  0.91566931  0.78880254     0.01320
N910        N  0.48710715  0.93232777  0.68092322     0.01420
N911        N  0.08447124  0.56509286  0.69501642    -0.46550
H912        H  0.45707051  0.58974212  0.77270897     0.07180
N913        N  0.48411397  0.53694352  0.70372640     0.01710
N914        N  0.06458765  0.93591794  0.68184039     0.01450
C915        C  0.11090345  0.90431017  0.67271668     0.43050
N916        N  0.48699641  0.94145918  0.81300756    -0.25160
C917        C  0.09094515  0.56468083  0.78653219    -0.06080
N918        N  0.46526280  0.53026484  0.83730307    -0.46270
N919        N  0.09201358  0.93178119  0.65969699    -0.46490
C920        C  0.10906104  0.55246413  0.81903830     0.42820
N921        N  0.06182187  0.53933642  0.70210098     0.01690
N922        N  0.06374376  0.93966991  0.81361764    -0.25180
N923        N  0.48649888  0.54223968  0.78348746    -0.25680
N924        N  0.06405398  0.91515425  0.78816242     0.01330
H925        H  0.09148557  0.94392684  0.86462492     0.07220
H926        H  0.09924487  0.87053534  0.72312230     0.07260
N927        N  0.06133408  0.51462511  0.67685212    -0.25730
N928        N  0.48694043  0.91044692  0.70844729    -0.25340
N929        N  0.06447040  0.51890836  0.80859614     0.01700
C930        C  0.43675816  0.54436210  0.67274904     0.43100
C931        C  0.45990773  0.93718603  0.83585320    -0.06590
N932        N  0.06436931  0.91283809  0.70842536    -0.25340
H933        H  0.45849362  0.86215306  0.71910413     0.07240
N934        N  0.45597986  0.55772165  0.70044056    -0.46560
H935        H  0.45378453  0.95444542  0.85837527     0.07230
C936        C  0.10331268  0.89732011  0.82593011     0.42930
C937        C  0.46182648  0.56691233  0.78946384    -0.06090
Co938      Co  0.02572504  0.98020182  0.81240713     0.73820
N939        N  0.45992907  0.89336390  0.79379293    -0.46280
C940        C  0.10041502  0.55682281  0.66355690     0.43200
N941        N  0.09120017  0.52399851  0.83117687    -0.46270
Co942      Co  0.02536854  0.91293146  0.74847991     0.73890
C943        C  0.09254121  0.89171767  0.70493156    -0.06590
C944        C  0.45564899  0.51350752  0.65881557    -0.06160
N945        N  0.06368990  0.54223870  0.78222904    -0.25680
N946        N  0.46479405  0.92231408  0.65500056    -0.46450
H947        H  0.08862920  0.50965009  0.62567403     0.07200
C948        C  0.08739985  0.93038554  0.83915975    -0.06570
Cl949      Cl  0.02489621  0.97685028  0.74566565    -0.49570
C950        C  0.44207655  0.90523889  0.82309508     0.42960
H951        H  0.09705493  0.58664834  0.76905874     0.07170
N952        N  0.08686556  0.88945202  0.79467217    -0.46280
C953        C  0.24358931  0.52993251  0.96067176    -0.11920
C954        C  0.24571353  0.49325156  0.95421552     0.05090
C955        C  0.22911556  0.97909895  0.92292081    -0.07200
C956        C  0.21155130  0.50164642  0.89916802    -0.07950
C957        C  0.20878053  0.53805272  0.90594726    -0.02500
C958        C  0.22448891  0.55236905  0.93756237     0.04320
N959        N  0.22073021  0.58914581  0.94704963     0.66820
H960        H  0.25694633  0.54125827  0.98389351     0.15720
H961        H  0.19990816  0.49046395  0.87488695     0.15430
N962        N  0.22997748  0.94196142  0.91445992     0.74530
O963        O  0.24497989  0.60482293  0.96448183    -0.38920
O964        O  0.19161835  0.60490948  0.94187690    -0.38860
O965        O  0.21991203  0.91963064  0.93745311    -0.39570
O966        O  0.23552525  0.93181097  0.88242142    -0.39630
C967        C  0.33982794  0.94876190  0.90818234    -0.11920
C968        C  0.33871036  0.91156442  0.90721668     0.05090
C969        C  0.31791224  0.89360534  0.93320220    -0.07200
C970        C  0.29642619  0.91328462  0.95682057    -0.07950
C971        C  0.29697448  0.95037839  0.95711296    -0.02500
C972        C  0.32036877  0.96823369  0.93361337     0.04320
N973        N  0.32438861  0.00606639  0.93509541     0.66820
H974        H  0.35572477  0.96300563  0.88871928     0.15720
H975        H  0.27822480  0.89945831  0.97420003     0.15430
N976        N  0.31844757  0.85570875  0.93629627     0.74530
O977        O  0.33109533  0.02323837  0.90678081    -0.38920
O978        O  0.32560479  0.52184189  0.96520768    -0.38860
O979        O  0.34748760  0.83910851  0.93417046    -0.39570
O980        O  0.29067198  0.83917811  0.94532039    -0.39630
C981        C  0.05563262  0.65676092  0.58219692    -0.11920
C982        C  0.09265952  0.65520632  0.57645678     0.05090
C983        C  0.10755258  0.67647846  0.54902655    -0.07200
C984        C  0.08565413  0.70015124  0.53024203    -0.07950
C985        C  0.04855914  0.70116474  0.53530178    -0.02500
C986        C  0.03341922  0.67844590  0.56131460     0.04320
N987        N  0.99558490  0.67644907  0.56641225     0.66820
H988        H  0.04367150  0.64086840  0.60315729     0.15720
H989        H  0.09793458  0.71776328  0.51126032     0.15430
N990        N  0.14443950  0.67367076  0.53903657     0.74530
O991        O  0.98287224  0.67169806  0.59754426    -0.38920
O992        O  0.97519713  0.67422004  0.53944506    -0.38860
O993        O  0.15935318  0.64378628  0.53777280    -0.39570
O994        O  0.16087735  0.70024764  0.52701632    -0.39630
C995        C  0.46596526  0.75489236  0.52701120    -0.11920
C996        C  0.50242058  0.75193172  0.53529383     0.05090
C997        C  0.51594868  0.77219779  0.56444571    -0.07200
C998        C  0.49300010  0.79380681  0.58470917    -0.07950
C999        C  0.45685363  0.79760280  0.57573334    -0.02500
C1000       C  0.44345441  0.77848680  0.54565832     0.04320
N1001       N  0.40765177  0.78348863  0.53293050     0.66820
H1002       H  0.45488270  0.73910933  0.50538825     0.15720
H1003       H  0.50372596  0.80788914  0.60781946     0.15430
N1004       N  0.05304888  0.77185023  0.57348100     0.74530
O1005       O  0.39159417  0.75871470  0.51671284    -0.38920
O1006       O  0.39369749  0.81384253  0.53367344    -0.38860
O1007       O  0.07597834  0.77836526  0.54956418    -0.39570
O1008       O  0.56258830  0.77081390  0.60611615    -0.39630
C1009       C  0.08182882  0.75480018  0.95873151    -0.11920
C1010       C  0.04514620  0.75330139  0.95125434     0.05090
C1011       C  0.03188188  0.77318018  0.92187716    -0.07200
C1012       C  0.05530265  0.79435847  0.90181366    -0.07950
C1013       C  0.09159154  0.79730258  0.91061744    -0.02500
C1014       C  0.10490186  0.77732906  0.93981541     0.04320
N1015       N  0.14131032  0.78031003  0.95139642     0.66820
H1016       H  0.09268986  0.73861493  0.97995494     0.15720
H1017       H  0.04490020  0.80893780  0.87908181     0.15430
N1018       N  0.99468706  0.77333010  0.91269759     0.74530
O1019       O  0.15657270  0.81007111  0.95202862    -0.38920
O1020       O  0.15691976  0.75406151  0.96506227    -0.38860
O1021       O  0.97140968  0.77704867  0.93696363    -0.39570
O1022       O  0.48528130  0.77519604  0.88006620    -0.39630
C1023       C  0.49130306  0.65677515  0.90968687    -0.11920
C1024       C  0.45428276  0.65573165  0.91529771     0.05090
C1025       C  0.43944284  0.67797600  0.94235009    -0.07200
C1026       C  0.46146630  0.70231017  0.96062194    -0.07950
C1027       C  0.49839940  0.70351364  0.95460516    -0.02500
C1028       C  0.51350217  0.67931920  0.92978391     0.04320
N1029       N  0.05136508  0.67639332  0.92557739     0.66820
H1030       H  0.50328710  0.63997883  0.88929204     0.15720
H1031       H  0.44969986  0.72030801  0.98003710     0.15430
N1032       N  0.40247890  0.67572989  0.95219115     0.74530
O1033       O  0.07100939  0.67427302  0.95309608    -0.38920
O1034       O  0.06461435  0.67029797  0.89485713    -0.38860
O1035       O  0.38695488  0.64611190  0.95293179    -0.39570
O1036       O  0.38635599  0.70266365  0.96409068    -0.39630
C1037       C  0.27734299  0.51610606  0.56150904    -0.11920
C1038       C  0.29589279  0.49545125  0.53615924     0.05090
C1039       C  0.33364192  0.49350958  0.53805778    -0.07200
C1040       C  0.35116057  0.51373699  0.56459794    -0.07950
C1041       C  0.33245176  0.53380434  0.59043647    -0.02500
C1042       C  0.29484817  0.53420303  0.58927220     0.04320
N1043       N  0.27387702  0.55096525  0.61697568     0.66820
H1044       H  0.24852792  0.51661201  0.56072879     0.15720
H1045       H  0.37993682  0.51402335  0.56497474     0.15430
N1046       N  0.35473143  0.47190301  0.51381029     0.74530
O1047       O  0.24518799  0.56633237  0.60892651    -0.38920
O1048       O  0.28136910  0.54639528  0.64982491    -0.38860
O1049       O  0.38694828  0.46567034  0.52094754    -0.39570
O1050       O  0.34187125  0.95908026  0.48513903    -0.39630
C1051       C  0.24861149  0.90506292  0.58209584    -0.11920
C1052       C  0.21126520  0.90648313  0.58186809     0.05090
C1053       C  0.19434865  0.92639006  0.55470642    -0.07200
C1054       C  0.21509075  0.94836145  0.53272583    -0.07950
C1055       C  0.25237515  0.94625623  0.53170751    -0.02500
C1056       C  0.26902810  0.92314856  0.55649644     0.04320
N1057       N  0.30675702  0.91838711  0.55683124     0.66820
H1058       H  0.26235550  0.88989258  0.60248363     0.15720
H1059       H  0.20168886  0.96824303  0.51746585     0.15430
N1060       N  0.15663048  0.92377287  0.54832633     0.74530
O1061       O  0.32373682  0.92179373  0.58604934    -0.38920
O1062       O  0.32157747  0.90345610  0.53027528    -0.38860
O1063       O  0.14093485  0.89449502  0.55222545    -0.39570
O1064       O  0.14025262  0.94862111  0.53298017    -0.39630
C1065       C  0.25953898  0.51520554  0.06256542    -0.11920
C1066       C  0.24328987  0.49400826  0.03589587     0.05090
C1067       C  0.20612196  0.49834675  0.02998716    -0.07200
C1068       C  0.18726328  0.52394053  0.05011883    -0.07950
C1069       C  0.20371360  0.54436943  0.07719121    -0.02500
C1070       C  0.24041367  0.53939378  0.08365648     0.04320
N1071       N  0.25853315  0.55700338  0.11281098     0.66820
H1072       H  0.28755432  0.51282029  0.06796421     0.15720
H1073       H  0.15904401  0.52720861  0.04535638     0.15430
N1074       N  0.18677397  0.47709381  0.00432989     0.74530
O1075       O  0.24651174  0.55498478  0.14454454    -0.38920
O1076       O  0.28924130  0.56964012  0.10791911    -0.38860
O1077       O  0.19336260  0.94458981  0.00083429    -0.39570
O1078       O  0.16042554  0.48989438  0.98784732    -0.39630
C1079       C  0.10310497  0.69409078  0.41802476    -0.11920
C1080       C  0.08913117  0.66175983  0.40483531     0.05090
C1081       C  0.05574758  0.65066639  0.41908736    -0.07200
C1082       C  0.04051127  0.66944485  0.44782288    -0.07950
C1083       C  0.05158659  0.70379543  0.45626538    -0.02500
C1084       C  0.08342700  0.71675779  0.44064182     0.04320
N1085       N  0.09665255  0.75219832  0.44727756     0.66820
H1086       H  0.12924435  0.70282966  0.41028070     0.15720
H1087       H  0.01698750  0.65890670  0.46053515     0.15430
N1088       N  0.03424917  0.62398145  0.40202028     0.74530
O1089       O  0.12116230  0.76473276  0.42784933    -0.38920
O1090       O  0.08495248  0.77096293  0.47288674    -0.38860
O1091       O  0.01700452  0.60225562  0.42096930    -0.39570
O1092       O  0.02730699  0.62625456  0.36877337    -0.39630
C1093       C  0.31286595  0.53435772  0.46862389    -0.11920
C1094       C  0.28957945  0.50916059  0.45263621     0.05090
C1095       C  0.28872217  0.50943024  0.41402699    -0.07200
C1096       C  0.31508875  0.52715834  0.39438455    -0.07950
C1097       C  0.34158787  0.54707951  0.41137411    -0.02500
C1098       C  0.34031857  0.55128598  0.44916841     0.04320
N1099       N  0.36652292  0.57221965  0.46824382     0.66820
H1100       H  0.30976793  0.54225766  0.49618456     0.15720
H1101       H  0.31375834  0.52686517  0.36514095     0.15430
N1102       N  0.25874289  0.99682625  0.39393278     0.74530
O1103       O  0.36075586  0.58248431  0.50020717    -0.38920
O1104       O  0.39714473  0.57685539  0.45510764    -0.38860
O1105       O  0.23040872  0.51473821  0.39474325    -0.39570
O1106       O  0.26350077  0.97525867  0.36824521    -0.39630
C1107       C  0.07275830  0.73663780  0.05024131    -0.11920
C1108       C  0.04652712  0.75538775  0.03149277     0.05090
C1109       C  0.04426705  0.79245126  0.03649467    -0.07200
C1110       C  0.06806881  0.80926667  0.06007706    -0.07950
C1111       C  0.09240590  0.79021711  0.08130785    -0.02500
C1112       C  0.09515622  0.75319889  0.07527203     0.04320
N1113       N  0.11887604  0.73129309  0.09535331     0.66820
H1114       H  0.07466695  0.70820948  0.04669138     0.15720
H1115       H  0.06665012  0.83777562  0.06232076     0.15430
N1116       N  0.01676013  0.81339573  0.02049158     0.74530
O1117       O  0.11301086  0.72552968  0.12832521    -0.38920
O1118       O  0.14222995  0.71339579  0.07895406    -0.38860
O1119       O  0.50130258  0.83686709  0.03912921    -0.39570
O1120       O  0.01245967  0.81330131  0.98682585    -0.39630
C1121       C  0.45925145  0.70202825  0.08547405    -0.11920
C1122       C  0.46341735  0.66504772  0.08400437     0.05090
C1123       C  0.48524952  0.65033818  0.05648912    -0.07200
C1124       C  0.50352252  0.67306877  0.03290146    -0.07950
C1125       C  0.49811660  0.70984781  0.03392521    -0.02500
C1126       C  0.47479035  0.72415472  0.05990075     0.04320
N1127       N  0.46512671  0.76081779  0.05948702     0.66820
H1128       H  0.44299367  0.71406120  0.10629925     0.15720
H1129       H  0.52155962  0.66195524  0.01307749     0.15430
N1130       N  0.48815912  0.61277252  0.05108548     0.74530
O1131       O  0.45317823  0.77406588  0.03077368    -0.38920
O1132       O  0.46164613  0.77773077  0.08877006    -0.38860
O1133       O  0.46072138  0.59352283  0.05199881    -0.39570
O1134       O  0.51714180  0.59945876  0.04049133    -0.39630
C1135       C  0.26219171  0.92703092  0.43748923    -0.11920
C1136       C  0.24554190  0.95598004  0.45417410     0.05090
C1137       C  0.20859661  0.96131392  0.44851502    -0.07200
C1138       C  0.18919774  0.93498136  0.43004583    -0.07950
C1139       C  0.20595911  0.90716604  0.41094092    -0.02500
C1140       C  0.24363037  0.90445072  0.41381137     0.04320
N1141       N  0.26415123  0.88213996  0.39025706     0.66820
H1142       H  0.29074771  0.92420177  0.44006825     0.15720
H1143       H  0.16060765  0.93737923  0.42934206     0.15430
N1144       N  0.19051128  0.99341438  0.45976059     0.74530
O1145       O  0.26022505  0.88445566  0.35651491    -0.38920
O1146       O  0.29063552  0.86556057  0.40243270    -0.38860
O1147       O  0.20752071  0.01984827  0.47162113    -0.39570
O1148       O  0.15714721  0.99589415  0.45689160    -0.39630
C1149       C  0.32596669  0.96070850  0.04486036    -0.11920
C1150       C  0.29273754  0.94681529  0.03515810     0.05090
C1151       C  0.28465859  0.91190558  0.04537836    -0.07200
C1152       C  0.31046225  0.89131306  0.06274524    -0.07950
C1153       C  0.34218209  0.90621704  0.07676132    -0.02500
C1154       C  0.34885643  0.94250992  0.06835981     0.04320
N1155       N  0.37574368  0.96294197  0.08631924     0.66820
H1156       H  0.33266568  0.98743231  0.03695878     0.15720
H1157       H  0.30413230  0.86379243  0.06669831     0.15430
N1158       N  0.24988226  0.89735324  0.03987828     0.74530
O1159       O  0.39527505  0.98356468  0.06838695    -0.38920
O1160       O  0.37504382  0.96589512  0.12027500    -0.38860
O1161       O  0.24652297  0.86649786  0.02707816    -0.39570
O1162       O  0.22389494  0.91120206  0.05618286    -0.39630
C1163       C  0.50518877  0.78629210  0.45562244    -0.11920
C1164       C  0.50252819  0.74920515  0.45461833     0.05090
C1165       C  0.47815986  0.73340308  0.43030650    -0.07200
C1166       C  0.46040386  0.75424932  0.40528730    -0.07950
C1167       C  0.46275563  0.79127512  0.40601775    -0.02500
C1168       C  0.48465427  0.80761781  0.43254044     0.04320
N1169       N  0.48537753  0.84536796  0.43745313     0.66820
H1170       H  0.52254805  0.79874825  0.47523840     0.15720
H1171       H  0.44371000  0.74107231  0.38554242     0.15430
N1172       N  0.46873465  0.69672933  0.43237754     0.74530
O1173       O  0.51347650  0.86053183  0.44801061    -0.38920
O1174       O  0.45694210  0.86300290  0.43589087    -0.38860
O1175       O  0.45702054  0.68455058  0.46170251    -0.39570
O1176       O  0.96479021  0.67876218  0.40380449    -0.39630
C1177       C  0.94219193  0.31118994  0.37830433     0.03480
C1178       C  0.90830824  0.29903711  0.36789380    -0.12670
C1179       C  0.89070263  0.31352055  0.33820944     0.00980
C1180       C  0.90557330  0.34264254  0.32063703    -0.11190
C1181       C  0.93842027  0.35640122  0.33164966     0.03470
C1182       C  0.95717985  0.33987477  0.35970872    -0.10620
H1183       H  0.89607844  0.27746145  0.38236685     0.09070
H1184       H  0.89152921  0.35449351  0.29829615     0.06600
H1185       H  0.98361815  0.34901290  0.36665053     0.06440
C1186       C  0.86565009  0.38412528  0.10153834     0.03480
C1187       C  0.90128186  0.39362115  0.10985213    -0.12670
C1188       C  0.91884291  0.37869252  0.13961454     0.00980
C1189       C  0.90370579  0.34973248  0.15714419    -0.11190
C1190       C  0.87073639  0.33650369  0.14639792     0.03470
C1191       C  0.85130491  0.35447895  0.11994176    -0.10620
H1192       H  0.91470512  0.41451196  0.09561736     0.09070
H1193       H  0.91659874  0.33888143  0.18079288     0.06600
H1194       H  0.82400587  0.34642378  0.11635756     0.06440
C1195       C  0.68375126  0.38376654  0.38639831     0.03480
C1196       C  0.69436966  0.34911344  0.37641527    -0.12670
C1197       C  0.67791852  0.33145871  0.34728968     0.00980
C1198       C  0.64758966  0.34608101  0.33144209    -0.11190
C1199       C  0.63410262  0.37838933  0.34367061     0.03470
C1200       C  0.65279548  0.39754833  0.36998518    -0.10620
H1201       H  0.71730561  0.33700387  0.38878106     0.09070
H1202       H  0.63578843  0.33338325  0.30799339     0.06600
H1203       H  0.64442912  0.42446672  0.37509630     0.06440
C1204       C  0.94444790  0.14335044  0.11165294     0.03480
C1205       C  0.91044506  0.15366279  0.12305355    -0.12670
C1206       C  0.89364275  0.13738375  0.15229852     0.00980
C1207       C  0.90932337  0.10756044  0.16794545    -0.11190
C1208       C  0.94231932  0.09517273  0.15541029     0.03470
C1209       C  0.96047140  0.11424736  0.12850013    -0.10620
H1210       H  0.89743358  0.17526753  0.10948420     0.09070
H1211       H  0.89590026  0.09405390  0.18976242     0.06600
H1212       H  0.98711058  0.10664029  0.12077402     0.06440
C1213       C  0.95309118  0.38803235  0.31403174     0.42810
N1214       N  0.48469689  0.43416167  0.30526395     0.01700
C1215       C  0.98886005  0.04353132  0.15648363    -0.06180
H1216       H  0.49305690  0.41149803  0.12190403     0.07190
C1217       C  0.61187827  0.40838088  0.20344429    -0.06530
Co1218     Co  0.96173726  0.47488293  0.23996031     0.74180
N1219       N  0.48820784  0.43842969  0.17347270    -0.25710
Co1220     Co  0.52941938  0.47554058  0.17688421     0.74070
C1221       C  0.59895181  0.38979427  0.17145626     0.42910
N1222       N  0.58859017  0.43599926  0.28594738     0.01320
N1223       N  0.56739476  0.43600259  0.18004323     0.01420
N1224       N  0.94432933  0.04320505  0.19767883    -0.46550
H1225       H  0.91805064  0.39979701  0.26430834     0.07180
N1226       N  0.96347802  0.43764347  0.19863818     0.01710
N1227       N  0.57022783  0.01311931  0.18020783     0.01450
C1228       C  0.60835945  0.05361494  0.16787776     0.43050
N1229       N  0.56384144  0.43577585  0.31110772    -0.25160
C1230       C  0.93401612  0.03517411  0.28784325    -0.06080
N1231       N  0.48078536  0.40681671  0.32694086    -0.46270
N1232       N  0.57964351  0.03605830  0.15499250    -0.46490
C1233       C  0.94145369  0.04887618  0.32370430     0.42820
N1234       N  0.96534426  0.01529072  0.20127877     0.01690
N1235       N  0.56182933  0.01212038  0.31236780    -0.25180
N1236       N  0.96120073  0.43468660  0.27875603    -0.25680
N1237       N  0.58773180  0.01266933  0.28829410     0.01330
H1238       H  0.55061907  0.04352432  0.35971956     0.07220
H1239       H  0.63998085  0.04278987  0.21961221     0.07260
N1240       N  0.49146334  0.01505123  0.17744733    -0.25730
N1241       N  0.59068646  0.43644576  0.20668636    -0.25340
N1242       N  0.48157393  0.01089160  0.30929568     0.01700
C1243       C  0.94579284  0.39929286  0.15957028     0.43100
C1244       C  0.57304619  0.41168887  0.33599564    -0.06590
N1245       N  0.59221500  0.01339917  0.20788530    -0.25340
H1246       H  0.63309025  0.40170584  0.22182130     0.07240
N1247       N  0.93774551  0.41493052  0.19127402    -0.46560
H1248       H  0.55927094  0.40698381  0.36113801     0.07230
C1249       C  0.60030384  0.05482423  0.32498938     0.42930
C1250       C  0.93983570  0.40648728  0.28212216    -0.06090
Co1251     Co  0.52282237  0.47331043  0.31032353     0.73820
N1252       N  0.61452272  0.41332020  0.29211642    -0.46280
C1253       C  0.95775815  0.06231443  0.17002875     0.43200
N1254       N  0.97087814  0.03211444  0.33595612    -0.46270
Co1255     Co  0.59036446  0.47481568  0.24714088     0.73890
C1256       C  0.61693374  0.03831483  0.20272565    -0.06590
C1257       C  0.97904582  0.41538867  0.14710651    -0.06160
N1258       N  0.95971096  0.01163495  0.28146752    -0.25680
N1259       N  0.57136262  0.40843567  0.15816342    -0.46450
H1260       H  0.50676450  0.05009898  0.13470312     0.07200
C1261       C  0.56733291  0.03791759  0.33663745    -0.06570
Cl1262     Cl  0.52603813  0.47479414  0.24364448    -0.49570
C1263       C  0.60637189  0.39622698  0.32269469     0.42960
H1264       H  0.91094703  0.03942069  0.27100018     0.07170
N1265       N  0.61121423  0.03797532  0.29473130    -0.46280
C1266       C  0.61228172  0.30959069  0.11053105     0.03480
C1267       C  0.59631834  0.33899437  0.12788486    -0.12670
C1268       C  0.61412500  0.35760650  0.15516754     0.00980
C1269       C  0.64676468  0.34524385  0.16744292    -0.11190
C1270       C  0.66249359  0.31543765  0.15203474     0.03470
C1271       C  0.64641041  0.29908286  0.12210133    -0.10620
H1272       H  0.56976489  0.34738990  0.12076002     0.09070
H1273       H  0.66014007  0.35902312  0.18909389     0.06600
H1274       H  0.66055981  0.27812249  0.10841940     0.06440
C1275       C  0.86572613  0.06791741  0.38796292     0.03480
C1276       C  0.89702180  0.05261702  0.37395096    -0.12670
C1277       C  0.91521875  0.06883145  0.34527224     0.00980
C1278       C  0.90180943  0.10027949  0.33078731    -0.11190
C1279       C  0.87094467  0.11594973  0.34471689     0.03470
C1280       C  0.85341591  0.10007916  0.37383695    -0.10620
H1281       H  0.90527231  0.02673861  0.38312074     0.09070
H1282       H  0.91390357  0.11114309  0.30669284     0.06600
H1283       H  0.82812179  0.11060736  0.38291288     0.06440
C1284       C  0.60947447  0.14092756  0.37648312     0.03480
C1285       C  0.63697383  0.15674477  0.35600569    -0.12670
C1286       C  0.65566148  0.13750622  0.32967483     0.00980
C1287       C  0.64388777  0.10378637  0.31990922    -0.11190
C1288       C  0.61600007  0.08795977  0.33870199     0.03470
C1289       C  0.60177796  0.10505428  0.36909201    -0.10620
H1290       H  0.64430729  0.18408737  0.35968910     0.09070
H1291       H  0.65648541  0.08970249  0.29784279     0.06600
H1292       H  0.58426405  0.09014944  0.38620514     0.06440
C1293       C  0.68163808  0.06814760  0.10047029     0.03480
C1294       C  0.65071412  0.05450179  0.11662966    -0.12670
C1295       C  0.63445619  0.07233881  0.14548621     0.00980
C1296       C  0.64894205  0.10424809  0.15799567    -0.11190
C1297       C  0.67863256  0.11923945  0.14106240     0.03470
C1298       C  0.69407168  0.10180851  0.11135613    -0.10620
H1299       H  0.64152687  0.02819137  0.10946591     0.09070
H1300       H  0.63853938  0.11623522  0.18248368     0.06600
H1301       H  0.71822360  0.11236965  0.09964778     0.06440
C1302       C  0.85228409  0.14232104  0.32264982     0.42810
N1303       N  0.81241008  0.18074121  0.30924846     0.01700
C1304       C  0.71570316  0.17878587  0.14875895    -0.06180
H1305       H  0.84934503  0.20252665  0.13271076     0.07190
C1306       C  0.83810566  0.31693327  0.20394587    -0.06530
Co1307     Co  0.77603016  0.16070730  0.24038050     0.74180
N1308       N  0.81610119  0.18962570  0.17772696    -0.25710
Co1309     Co  0.77715903  0.22825512  0.17790460     0.74070
C1310       C  0.85323921  0.30946292  0.16866554     0.42910
N1311       N  0.81381634  0.28594625  0.28943485     0.01320
N1312       N  0.81499523  0.26911084  0.18153052     0.01420
N1313       N  0.71531453  0.13751374  0.19246623    -0.46550
H1314       H  0.84280304  0.11136348  0.27007295     0.07180
N1315       N  0.81602028  0.16357137  0.20127018     0.01710
N1316       N  0.73807844  0.26656898  0.18074772     0.01450
C1317       C  0.69481063  0.30095396  0.16866931     0.43050
N1318       N  0.81351715  0.26006658  0.31318514    -0.25160
C1319       C  0.70713867  0.13921886  0.28149322    -0.06080
N1320       N  0.83453647  0.17098956  0.33530039    -0.46270
N1321       N  0.71266022  0.27225823  0.15679090    -0.46490
C1322       C  0.68772817  0.15251707  0.31287905     0.42820
N1323       N  0.73852730  0.16282348  0.19959462     0.01690
N1324       N  0.73675970  0.26202925  0.31322132    -0.25180
N1325       N  0.81331346  0.15890766  0.28136844    -0.25680
N1326       N  0.73641142  0.28658984  0.28814384     0.01330
H1327       H  0.70931046  0.25749756  0.36434779     0.07220
H1328       H  0.70499644  0.33434387  0.22021334     0.07260
N1329       N  0.73934460  0.18753402  0.17467982    -0.25730
N1330       N  0.81453759  0.29101941  0.20938425    -0.25340
N1331       N  0.73487810  0.18338415  0.30590362     0.01700
C1332       C  0.86057508  0.15283434  0.16690325     0.43100
C1333       C  0.84033159  0.26490043  0.33644285    -0.06590
N1334       N  0.73779104  0.28958453  0.20770888    -0.25340
H1335       H  0.84123970  0.34024108  0.22073657     0.07240
N1336       N  0.84238525  0.14089350  0.19585520    -0.46560
H1337       H  0.84646590  0.24790528  0.35893850     0.07230
C1338       C  0.69755725  0.30435428  0.32668557     0.42930
C1339       C  0.83797397  0.13419275  0.28712079    -0.06090
Co1340     Co  0.77441605  0.22135055  0.31124744     0.73820
N1341       N  0.83994604  0.30874875  0.29506007    -0.46280
C1342       C  0.69926182  0.14586377  0.16125515     0.43200
N1343       N  0.70659834  0.17973627  0.32678360    -0.46270
Co1344     Co  0.77562291  0.28873191  0.24874665     0.73890
C1345       C  0.71129963  0.31239268  0.20252310    -0.06590
C1346       C  0.84321824  0.18522975  0.15497138    -0.06160
N1347       N  0.73577238  0.16015119  0.27914898    -0.25680
N1348       N  0.83700336  0.27994878  0.15582096    -0.46450
H1349       H  0.71158119  0.19286499  0.12380139     0.07200
C1350       C  0.71333247  0.27121346  0.33915354    -0.06570
Cl1351     Cl  0.77592690  0.22478327  0.24455158    -0.49570
C1352       C  0.85772491  0.29733028  0.32436568     0.42960
H1353       H  0.70053381  0.11793266  0.26305815     0.07170
N1354       N  0.71374134  0.31235800  0.29534291    -0.46280
C1355       C  0.76856552  0.48132766  0.47490114     0.00920
C1356       C  0.77363069  0.47381513  0.51134274     0.00920
C1357       C  0.52107573  0.23049075  0.97389420     0.00920
C1358       C  0.52014554  0.23371422  0.01084133     0.00920
C1359       C  0.52671277  0.22689174  0.47716104     0.00920
C1360       C  0.52600072  0.22687999  0.51425610     0.00920
C1361       C  0.76684246  0.46925791  0.01436713     0.00920
C1362       C  0.76900749  0.47044874  0.97733900     0.00920
C1363       C  0.85813493  0.39272844  0.87778641     0.03480
C1364       C  0.89157635  0.40502063  0.86663145    -0.12670
C1365       C  0.90885349  0.38986635  0.83684846     0.00980
C1366       C  0.89377538  0.36050574  0.81958173    -0.11190
C1367       C  0.86106303  0.34696795  0.83108691     0.03470
C1368       C  0.84271182  0.36397385  0.85924928    -0.10620
H1369       H  0.90390144  0.42679337  0.88098078     0.09070
H1370       H  0.90770342  0.34818562  0.79726601     0.06600
H1371       H  0.81642318  0.35482930  0.86663127     0.06440
C1372       C  0.93186607  0.13411453  0.88998869     0.03480
C1373       C  0.90150268  0.14928461  0.87399783    -0.12670
C1374       C  0.88441028  0.13256671  0.84490329     0.00980
C1375       C  0.89800273  0.10082510  0.83120869    -0.11190
C1376       C  0.92796275  0.08510908  0.84666108     0.03470
C1377       C  0.94407593  0.10110973  0.87682235    -0.10620
H1378       H  0.89312225  0.17564235  0.88182475     0.09070
H1379       H  0.88684150  0.08970399  0.80662925     0.06600
H1380       H  0.96812959  0.08960206  0.88768271     0.06440
C1381       C  0.69042881  0.05999273  0.87852172     0.03480
C1382       C  0.65783485  0.04848483  0.86417502    -0.12670
C1383       C  0.64184438  0.06640824  0.83548932     0.00980
C1384       C  0.65788111  0.09695835  0.82199798    -0.11190
C1385       C  0.69003350  0.10931965  0.83638540     0.03470
C1386       C  0.70654627  0.09043586  0.86431194    -0.10620
H1387       H  0.64536441  0.02492576  0.87488383     0.09070
H1388       H  0.64541714  0.11116743  0.80014655     0.06600
H1389       H  0.73214939  0.09886743  0.87456693     0.06440
C1390       C  0.61508396  0.31909085  0.88692821     0.03480
C1391       C  0.60350391  0.35232079  0.87450791    -0.12670
C1392       C  0.62156190  0.36954770  0.84648572     0.00980
C1393       C  0.65231372  0.35418158  0.83186693    -0.11190
C1394       C  0.66533886  0.32210406  0.84516831     0.03470
C1395       C  0.64649320  0.30451149  0.87239297    -0.10620
H1396       H  0.57870930  0.36328990  0.88439549     0.09070
H1397       H  0.66487448  0.36609440  0.80856112     0.06600
H1398       H  0.65469039  0.27814590  0.88006715     0.06440
C1399       C  0.61511428  0.13349381  0.60134303     0.03480
C1400       C  0.64638498  0.14783712  0.61674634    -0.12670
C1401       C  0.66427289  0.13012315  0.64455897     0.00980
C1402       C  0.65034778  0.09843895  0.65774556    -0.11190
C1403       C  0.61961011  0.08365046  0.64275762     0.03470
C1404       C  0.60269910  0.10056245  0.61389172    -0.10620
H1405       H  0.65513531  0.17411600  0.60935202     0.09070
H1406       H  0.66207685  0.08652039  0.68147876     0.06600
H1407       H  0.57815259  0.08955639  0.60339556     0.06440
C1408       C  0.85295451  0.05439617  0.61777260     0.03480
C1409       C  0.88318694  0.03976054  0.63385922    -0.12670
C1410       C  0.90323845  0.05913124  0.65902923     0.00980
C1411       C  0.89132549  0.09256921  0.67034523    -0.11190
C1412       C  0.86076130  0.10737001  0.65490464     0.03470
C1413       C  0.84286780  0.08882424  0.62742712    -0.10620
H1414       H  0.89098521  0.01308828  0.62675530     0.09070
H1415       H  0.90596848  0.10715101  0.69076958     0.06600
H1416       H  0.82049206  0.10073182  0.61389630     0.06440
C1417       C  0.84647242  0.31476693  0.81417491     0.42810
N1418       N  0.81557430  0.26793372  0.80611111     0.01700
C1419       C  0.81464825  0.15920894  0.65515396    -0.06180
H1420       H  0.80877232  0.28948835  0.62331722     0.07190
C1421       C  0.68690779  0.29008965  0.70268211    -0.06530
Co1422     Co  0.83934192  0.22697533  0.74070031     0.74180
N1423       N  0.81273334  0.26306540  0.67484655    -0.25710
Co1424     Co  0.77182879  0.22524265  0.67735003     0.74070
C1425       C  0.69916531  0.30758584  0.66989451     0.42910
N1426       N  0.71157608  0.26389248  0.78709253     0.01320
N1427       N  0.73296776  0.26367012  0.68064236     0.01420
N1428       N  0.85889957  0.16002998  0.69668532    -0.46550
H1429       H  0.88157531  0.30237068  0.76458152     0.07180
N1430       N  0.83728959  0.26404139  0.70020131     0.01710
N1431       N  0.73115987  0.18718353  0.67982294     0.01450
C1432       C  0.69126688  0.14861227  0.66633658     0.43050
N1433       N  0.73629654  0.26458728  0.81227451    -0.25160
C1434       C  0.86683823  0.16617479  0.78752690    -0.06080
N1435       N  0.81903495  0.29590408  0.82745401    -0.46270
N1436       N  0.72045181  0.16547723  0.65362686    -0.46490
C1437       C  0.85869447  0.15216572  0.82295424     0.42820
N1438       N  0.83674774  0.18693492  0.70129630     0.01690
N1439       N  0.74066878  0.18797884  0.81191960    -0.25180
N1440       N  0.83914613  0.26719434  0.77968099    -0.25680
N1441       N  0.71477093  0.18672387  0.78789580     0.01330
H1442       H  0.75497224  0.15490348  0.85675680     0.07220
H1443       H  0.66067191  0.15908765  0.71877343     0.07260
N1444       N  0.81072127  0.18678444  0.67738326    -0.25730
N1445       N  0.70948249  0.26324798  0.70716027    -0.25340
N1446       N  0.81966608  0.19112552  0.80927301     0.01700
C1447       C  0.85554897  0.30199093  0.66172557     0.43100
C1448       C  0.72654709  0.28834828  0.83764596    -0.06590
N1449       N  0.70943566  0.18675113  0.70774775    -0.25340
H1450       H  0.66491558  0.29634424  0.72037192     0.07240
N1451       N  0.86320929  0.28655597  0.69329440    -0.46560
H1452       H  0.74027069  0.29333683  0.86281834     0.07230
C1453       C  0.70617347  0.14160089  0.82148916     0.42930
C1454       C  0.86002373  0.29574152  0.78262114    -0.06090
Co1455     Co  0.77817010  0.22800659  0.81078974     0.73820
N1456       N  0.68514582  0.28601969  0.79365118    -0.46280
C1457       C  0.84662402  0.14150541  0.66789228     0.43200
N1458       N  0.82961035  0.16938953  0.83539563    -0.46270
Co1459     Co  0.71076491  0.22506535  0.74755547     0.73890
C1460       C  0.68387956  0.16286743  0.70197724    -0.06590
C1461       C  0.82229867  0.28592920  0.64878270    -0.06160
N1462       N  0.84161591  0.19024957  0.78155155    -0.25680
N1463       N  0.72786042  0.28983849  0.65775192    -0.46450
H1464       H  0.79702623  0.15268318  0.63305351     0.07200
C1465       C  0.73750363  0.16056622  0.83436817    -0.06570
Cl1466     Cl  0.77501336  0.22630313  0.74407572    -0.49570
C1467       C  0.69289006  0.30307952  0.82462679     0.42960
H1468       H  0.88985066  0.16149332  0.77065109     0.07170
N1469       N  0.69341976  0.15933809  0.79271671    -0.46280
C1470       C  0.93357609  0.31912945  0.60023866     0.03480
C1471       C  0.90133665  0.30495905  0.61328969    -0.12670
C1472       C  0.88301371  0.32151325  0.64177677     0.00980
C1473       C  0.89733208  0.35207110  0.65771615    -0.11190
C1474       C  0.92888391  0.36699449  0.64473239     0.03470
C1475       C  0.94633759  0.35107435  0.61535620    -0.10620
H1476       H  0.89226997  0.27935172  0.60372114     0.09070
H1477       H  0.88512381  0.36294303  0.68187787     0.06600
H1478       H  0.97157496  0.36180323  0.60648195     0.06440
C1479       C  0.69097449  0.38885061  0.61139081     0.03480
C1480       C  0.70248392  0.35604954  0.62466017    -0.12670
C1481       C  0.68533824  0.34027631  0.65396628     0.00980
C1482       C  0.65535949  0.35632421  0.66886482    -0.11190
C1483       C  0.64294103  0.38867868  0.65600911     0.03470
C1484       C  0.66132091  0.40537328  0.62780520    -0.10620
H1485       H  0.72506556  0.34288927  0.61242243     0.09070
H1486       H  0.64156683  0.34337989  0.69060871     0.06600
H1487       H  0.65270296  0.43118788  0.61887025     0.06680
C1488       C  0.94753832  0.05887889  0.82488041     0.42810
N1489       N  0.98740800  0.02047234  0.81110313     0.01700
C1490       C  0.58458799  0.02364320  0.65088782    -0.06180
H1491       H  0.94896558  0.99570787  0.63688927     0.07190
C1492       C  0.96262633  0.38522383  0.70250946    -0.06530
Co1493     Co  0.52403095  0.04085050  0.74277526     0.74180
N1494       N  0.98442116  0.01098381  0.67970017    -0.25710
Co1495     Co  0.52442816  0.47343783  0.67891456     0.74070
C1496       C  0.94767987  0.39327012  0.66728076     0.42910
N1497       N  0.98658045  0.41566930  0.78880463     0.01320
N1498       N  0.98710702  0.43232768  0.68092529     0.01420
N1499       N  0.58447192  0.06509239  0.69501456    -0.46550
H1500       H  0.95707108  0.08974237  0.77270724     0.07180
N1501       N  0.98411453  0.03694370  0.70372359     0.01710
N1502       N  0.56458758  0.43591813  0.68184205     0.01450
C1503       C  0.61090290  0.40430961  0.67271775     0.43050
N1504       N  0.98699638  0.44145911  0.81300975    -0.25160
C1505       C  0.59094588  0.06468009  0.78653049    -0.06080
N1506       N  0.96526339  0.03026465  0.83730094    -0.46270
N1507       N  0.59201315  0.43178087  0.65969820    -0.46490
C1508       C  0.60906155  0.05246295  0.81903665     0.42820
N1509       N  0.56182243  0.03933606  0.70209898     0.01690
N1510       N  0.56374390  0.43967005  0.81361972    -0.25180
N1511       N  0.98649917  0.04223963  0.78348521    -0.25680
N1512       N  0.56405415  0.41515453  0.78816435     0.01330
H1513       H  0.59148582  0.44392664  0.86462698     0.07220
H1514       H  0.59924428  0.37053526  0.72312384     0.07260
N1515       N  0.56133466  0.01462477  0.67685011    -0.25730
N1516       N  0.98694041  0.41044683  0.70844935    -0.25340
N1517       N  0.56447054  0.01890786  0.80859408     0.01700
C1518       C  0.93676048  0.04436397  0.67274364     0.43100
C1519       C  0.95990749  0.43718588  0.83585516    -0.06590
N1520       N  0.56436931  0.41283841  0.70842715    -0.25340
H1521       H  0.95849388  0.36215278  0.71910612     0.07240
N1522       N  0.95598128  0.05772280  0.70043626    -0.46560
H1523       H  0.95378406  0.45444526  0.85837717     0.07230
C1524       C  0.60331302  0.39732016  0.82593183     0.42930
C1525       C  0.96182697  0.06691242  0.78946191    -0.06090
Co1526     Co  0.52572498  0.48020198  0.81240939     0.73820
N1527       N  0.95992906  0.39336391  0.79379474    -0.46280
C1528       C  0.60041579  0.05682234  0.66355511     0.43200
N1529       N  0.59120028  0.02399753  0.83117493    -0.46270
Co1530     Co  0.52536862  0.41293164  0.74848191     0.73890
C1531       C  0.59254090  0.39171769  0.70493309    -0.06590
C1532       C  0.95565088  0.01350867  0.65881128    -0.06160
N1533       N  0.56369032  0.04223832  0.78222709    -0.25680
N1534       N  0.96479398  0.42231388  0.65500262    -0.46450
H1535       H  0.58862995  0.00964971  0.62567209     0.07200
C1536       C  0.58740008  0.43038552  0.83916173    -0.06570
Cl1537     Cl  0.52489608  0.47685041  0.74566781    -0.49570
C1538       C  0.94207631  0.40523878  0.82309680     0.42960
H1539       H  0.59705607  0.08664759  0.76905717     0.07170
N1540       N  0.58686582  0.38945231  0.79467388    -0.46280
C1541       C  0.74358938  0.02993147  0.96067151    -0.11920
C1542       C  0.74571408  0.99325055  0.95421535     0.05090
C1543       C  0.72911515  0.47910032  0.92292074    -0.07200
C1544       C  0.71155109  0.00164470  0.89916821    -0.07950
C1545       C  0.70877998  0.03805098  0.90594731    -0.02500
C1546       C  0.72448844  0.05236763  0.93756224     0.04320
N1547       N  0.72072936  0.08914438  0.94704938     0.66820
H1548       H  0.75694648  0.04125750  0.98389307     0.15720
H1549       H  0.69990795  0.99046200  0.87488725     0.15430
N1550       N  0.72997648  0.44196278  0.91445980     0.74530
O1551       O  0.74497906  0.10482192  0.96448117    -0.38920
O1552       O  0.69161724  0.10490766  0.94187687    -0.38860
O1553       O  0.71991067  0.41963213  0.93745295    -0.39570
O1554       O  0.73552414  0.43181227  0.88242131    -0.39630
C1555       C  0.83982702  0.44876191  0.90818299    -0.11920
C1556       C  0.83870920  0.41156444  0.90721729     0.05090
C1557       C  0.81791069  0.39360549  0.93320263    -0.07200
C1558       C  0.79642467  0.41328494  0.95682090    -0.07950
C1559       C  0.79697333  0.45037870  0.95711336    -0.02500
C1560       C  0.82036789  0.46823383  0.93361392     0.04320
N1561       N  0.82438803  0.50606649  0.93509604     0.66820
H1562       H  0.85572407  0.46300556  0.88872004     0.15720
H1563       H  0.77822305  0.39945878  0.97420025     0.15430
N1564       N  0.81844561  0.35570890  0.93629665     0.74530
O1565       O  0.83109467  0.52323849  0.90678143    -0.38920
O1566       O  0.82560512  0.02184187  0.96520703    -0.38860
O1567       O  0.84748551  0.33910838  0.93417117    -0.39570
O1568       O  0.79066978  0.33917852  0.94532048    -0.39630
C1569       C  0.55563306  0.15676142  0.58219690    -0.11920
C1570       C  0.59265998  0.15520714  0.57645678     0.05090
C1571       C  0.60755293  0.17647975  0.54902689    -0.07200
C1572       C  0.58565433  0.20015257  0.53024259    -0.07950
C1573       C  0.54855931  0.20116572  0.53530226    -0.02500
C1574       C  0.53341953  0.17844651  0.56131482     0.04320
N1575       N  0.49558521  0.17644939  0.56641244     0.66820
H1576       H  0.54367204  0.14086854  0.60315704     0.15720
H1577       H  0.59793466  0.21776489  0.51126107     0.15430
N1578       N  0.64443991  0.17367246  0.53903697     0.74530
O1579       O  0.48287258  0.17169784  0.59754437    -0.38920
O1580       O  0.47519744  0.17422069  0.53944523    -0.38860
O1581       O  0.65935383  0.14378812  0.53777284    -0.39570
O1582       O  0.66087755  0.20024961  0.52701704    -0.39630
C1583       C  0.96596519  0.25489318  0.52701188    -0.11920
C1584       C  0.00242053  0.25193255  0.53529445     0.05090
C1585       C  0.01594860  0.27219846  0.56444647    -0.07200
C1586       C  0.99299996  0.29380717  0.58471021    -0.07950
C1587       C  0.95685344  0.29760309  0.57573453    -0.02500
C1588       C  0.94345426  0.27848733  0.54565932     0.04320
N1589       N  0.90765158  0.28348915  0.53293162     0.66820
H1590       H  0.95488265  0.23911032  0.50538880     0.15720
H1591       H  0.00372583  0.30788932  0.60782060     0.15430
N1592       N  0.55304883  0.27185108  0.57348158     0.74530
O1593       O  0.89159403  0.25871528  0.51671382    -0.38920
O1594       O  0.89369722  0.31384300  0.53367478    -0.38860
O1595       O  0.57597813  0.27836651  0.54956471    -0.39570
O1596       O  0.06258843  0.27081454  0.60611666    -0.39630
C1597       C  0.58182925  0.25479903  0.95873200    -0.11920
C1598       C  0.54514666  0.25330018  0.95125477     0.05090
C1599       C  0.53188228  0.27317918  0.92187777    -0.07200
C1600       C  0.55530296  0.29435777  0.90181453    -0.07950
C1601       C  0.59159182  0.29730196  0.91061842    -0.02500
C1602       C  0.60490220  0.27732821  0.93981620     0.04320
N1603       N  0.64131063  0.28030924  0.95139730     0.66820
H1604       H  0.59269030  0.23861367  0.97995536     0.15720
H1605       H  0.54490049  0.30893732  0.87908283     0.15430
N1606       N  0.49468742  0.27332922  0.91269837     0.74530
O1607       O  0.65657291  0.31007037  0.95202969    -0.38920
O1608       O  0.65692014  0.25406070  0.96506302    -0.38860
O1609       O  0.47141017  0.27704765  0.93696457    -0.39570
O1610       O  0.98528152  0.27519550  0.88006705    -0.39630
C1611       C  0.99130399  0.15677410  0.90968680    -0.11920
C1612       C  0.95428367  0.15573046  0.91529750     0.05090
C1613       C  0.93944362  0.17797453  0.94235005    -0.07200
C1614       C  0.96146693  0.20230868  0.96062212    -0.07950
C1615       C  0.99840003  0.20351231  0.95460545    -0.02500
C1616       C  0.01350296  0.17931806  0.92978411     0.04320
N1617       N  0.55136589  0.17639228  0.92557776     0.66820
H1618       H  0.00328816  0.13997800  0.88929187     0.15720
H1619       H  0.94970036  0.22030638  0.98003734     0.15430
N1620       N  0.90247968  0.17572818  0.95219107     0.74530
O1621       O  0.57101007  0.17427180  0.95309653    -0.38920
O1622       O  0.56461532  0.17029722  0.89485750    -0.38860
O1623       O  0.88695582  0.14611010  0.95293154    -0.39570
O1624       O  0.88635660  0.20266180  0.96409067    -0.39630
C1625       C  0.77734469  0.01610768  0.56150737    -0.11920
C1626       C  0.79589321  0.99545673  0.53615310     0.05090
C1627       C  0.83364299  0.99352050  0.53804509    -0.07200
C1628       C  0.85116294  0.01374806  0.56458459    -0.07950
C1629       C  0.83245527  0.03381044  0.59042792    -0.02500
C1630       C  0.79485159  0.03420457  0.58926934     0.04320
N1631       N  0.77388243  0.05096169  0.61697763     0.66820
H1632       H  0.74852949  0.01661049  0.56073165     0.15720
H1633       H  0.87993919  0.01403776  0.56495805     0.15430
N1634       N  0.85473195  0.97191742  0.51379374     0.74530
O1635       O  0.74519006  0.06632565  0.60893437    -0.38920
O1636       O  0.78137995  0.04638954  0.64982526    -0.38860
O1637       O  0.88695200  0.96569279  0.52092349    -0.39570
O1638       O  0.84187425  0.45907058  0.48515174    -0.39630
C1639       C  0.74861110  0.40506235  0.58210208    -0.11920
C1640       C  0.71126563  0.40647650  0.58186929     0.05090
C1641       C  0.69434941  0.42637572  0.55469992    -0.07200
C1642       C  0.71509387  0.44834548  0.53272463    -0.07950
C1643       C  0.75237649  0.44625026  0.53170932    -0.02500
C1644       C  0.76902936  0.42314585  0.55650387     0.04320
N1645       N  0.80675835  0.41838670  0.55684361     0.66820
H1646       H  0.76235636  0.38989374  0.60249770     0.15720
H1647       H  0.70167729  0.46824457  0.51744453     0.15430
N1648       N  0.65663366  0.42374524  0.54831163     0.74530
O1649       O  0.82373454  0.42180071  0.58606326    -0.38920
O1650       O  0.82158155  0.40344674  0.53029459    -0.38860
O1651       O  0.64094280  0.39446779  0.55222710    -0.39570
O1652       O  0.64025598  0.44857791  0.53293744    -0.39630
C1653       C  0.75954058  0.01520508  0.06256527    -0.11920
C1654       C  0.74329126  0.99400777  0.03589586     0.05090
C1655       C  0.70612321  0.99834597  0.02998778    -0.07200
C1656       C  0.68726455  0.02393929  0.05012015    -0.07950
C1657       C  0.70371509  0.04436809  0.07719248    -0.02500
C1658       C  0.74041536  0.03939288  0.08365694     0.04320
N1659       N  0.75853519  0.05700242  0.11281124     0.66820
H1660       H  0.78755605  0.01282018  0.06796351     0.15720
H1661       H  0.65904517  0.02720711  0.04535822     0.15430
N1662       N  0.68677506  0.97709324  0.00433046     0.74530
O1663       O  0.74651442  0.05498338  0.14454503    -0.38920
O1664       O  0.78924308  0.06963959  0.10791888    -0.38860
O1665       O  0.69336120  0.44459024  0.00083443    -0.39570
O1666       O  0.66042633  0.98989385  0.98784842    -0.39630
C1667       C  0.60310521  0.19409128  0.41802578    -0.11920
C1668       C  0.58913153  0.16176022  0.40483651     0.05090
C1669       C  0.55574782  0.15066689  0.41908836    -0.07200
C1670       C  0.54051125  0.16944561  0.44782357    -0.07950
C1671       C  0.55158656  0.20379623  0.45626596    -0.02500
C1672       C  0.58342709  0.21675847  0.44064252     0.04320
N1673       N  0.59665261  0.25219904  0.44727809     0.66820
H1674       H  0.62924466  0.20283008  0.41028183     0.15720
H1675       H  0.51698739  0.15890754  0.46053573     0.15430
N1676       N  0.53424963  0.12398173  0.40202137     0.74530
O1677       O  0.62116258  0.26473328  0.42785001    -0.38920
O1678       O  0.58495231  0.27096388  0.47288698    -0.38860
O1679       O  0.51700482  0.10225608  0.42097046    -0.39570
O1680       O  0.52730783  0.12625440  0.36877434    -0.39630
C1681       C  0.81284636  0.03437056  0.46861996    -0.11920
C1682       C  0.78957592  0.00915995  0.45263045     0.05090
C1683       C  0.78873472  0.00941568  0.41402076    -0.07200
C1684       C  0.81510400  0.02714540  0.39438362    -0.07950
C1685       C  0.84158811  0.04708275  0.41137768    -0.02500
C1686       C  0.84030054  0.05130294  0.44917010     0.04320
N1687       N  0.86648905  0.07225295  0.46824950     0.66820
H1688       H  0.80973453  0.04227530  0.49617804     0.15720
H1689       H  0.81378657  0.02684125  0.36513949     0.15430
N1690       N  0.75871744  0.49685837  0.39394784     0.74530
O1691       O  0.86070769  0.08252043  0.50020925    -0.38920
O1692       O  0.89711211  0.07690231  0.45512133    -0.38860
O1693       O  0.73042391  0.01469052  0.39471809    -0.39570
O1694       O  0.76345601  0.47529068  0.36825668    -0.39630
C1695       C  0.57275831  0.23663650  0.05024217    -0.11920
C1696       C  0.54652755  0.25538654  0.03149308     0.05090
C1697       C  0.54426792  0.29245013  0.03649442    -0.07200
C1698       C  0.56806984  0.30926560  0.06007654    -0.07950
C1699       C  0.59240642  0.29021603  0.08130792    -0.02500
C1700       C  0.59515610  0.25319762  0.07527301     0.04320
N1701       N  0.61887484  0.23129174  0.09535557     0.66820
H1702       H  0.57466652  0.20820809  0.04669278     0.15720
H1703       H  0.56665156  0.33777461  0.06231969     0.15430
N1704       N  0.51676115  0.31339466  0.02049118     0.74530
O1705       O  0.61301030  0.22553173  0.12832823    -0.38920
O1706       O  0.64222710  0.21339146  0.07895728    -0.38860
O1707       O  0.00130310  0.33686552  0.03912901    -0.39570
O1708       O  0.51246203  0.31330150  0.98682527    -0.39630
C1709       C  0.95925191  0.20202814  0.08547475    -0.11920
C1710       C  0.96341795  0.16504761  0.08400567     0.05090
C1711       C  0.98524993  0.15033768  0.05649047    -0.07200
C1712       C  0.00352270  0.17306793  0.03290230    -0.07950
C1713       C  0.99811679  0.20984697  0.03392559    -0.02500
C1714       C  0.97479062  0.22415424  0.05990101     0.04320
N1715       N  0.96512701  0.26081732  0.05948680     0.66820
H1716       H  0.94299423  0.21406135  0.10629986     0.15720
H1717       H  0.02155972  0.16195415  0.01307841     0.15430
N1718       N  0.98815960  0.11277194  0.05108747     0.74530
O1719       O  0.95317891  0.27406517  0.03077319    -0.38920
O1720       O  0.96164623  0.27773062  0.08876963    -0.38860
O1721       O  0.96072195  0.09352216  0.05200154    -0.39570
O1722       O  0.01714219  0.09945810  0.04049317    -0.39630
C1723       C  0.76219579  0.42703586  0.43748459    -0.11920
C1724       C  0.74554519  0.45598167  0.45417465     0.05090
C1725       C  0.70859988  0.46131660  0.44851472    -0.07200
C1726       C  0.68920159  0.43498559  0.43004264    -0.07950
C1727       C  0.70596317  0.40717177  0.41093597    -0.02500
C1728       C  0.74363461  0.40445762  0.41380461     0.04320
N1729       N  0.76415522  0.38214987  0.39024700     0.66820
H1730       H  0.79075210  0.42420733  0.44006266     0.15720
H1731       H  0.66061096  0.43738301  0.42933907     0.15430
N1732       N  0.69051421  0.49341586  0.45976355     0.74530
O1733       O  0.76022446  0.38446580  0.35650542    -0.38920
O1734       O  0.79064266  0.36557268  0.40241879    -0.38860
O1735       O  0.70752164  0.51984359  0.47164111    -0.39570
O1736       O  0.65715138  0.49590055  0.45688164    -0.39630
C1737       C  0.82596528  0.46070872  0.04486078    -0.11920
C1738       C  0.79273608  0.44681562  0.03515851     0.05090
C1739       C  0.78465702  0.41190592  0.04537877    -0.07200
C1740       C  0.81046069  0.39131324  0.06274548    -0.07950
C1741       C  0.84218078  0.40621698  0.07676121    -0.02500
C1742       C  0.84885516  0.44250990  0.06835992     0.04320
N1743       N  0.87574271  0.46294166  0.08631924     0.66820
H1744       H  0.83266429  0.48743257  0.03695934     0.15720
H1745       H  0.80413063  0.36379264  0.06669865     0.15430
N1746       N  0.74988060  0.39735375  0.03987880     0.74530
O1747       O  0.89527367  0.48356480  0.06838700    -0.38920
O1748       O  0.87504363  0.46589401  0.12027508    -0.38860
O1749       O  0.74652112  0.36649835  0.02707878    -0.39570
O1750       O  0.72389337  0.41120279  0.05618334    -0.39630
C1751       C  0.00518888  0.28629295  0.45562269    -0.11920
C1752       C  0.00252816  0.24920599  0.45461879     0.05090
C1753       C  0.97815994  0.23340388  0.43030688    -0.07200
C1754       C  0.96040416  0.25425004  0.40528745    -0.07950
C1755       C  0.96275616  0.29127583  0.40601761    -0.02500
C1756       C  0.98465472  0.30761861  0.43254030     0.04320
N1757       N  0.98537828  0.34536880  0.43745255     0.66820
H1758       H  0.02254808  0.29874915  0.47523868     0.15720
H1759       H  0.94371031  0.24107301  0.38554258     0.15430
N1760       N  0.96873467  0.19673015  0.43237799     0.74530
O1761       O  0.01347726  0.36053252  0.44801025    -0.38920
O1762       O  0.95694306  0.36300401  0.43588965    -0.38860
O1763       O  0.95702042  0.18455149  0.46170296    -0.39570
O1764       O  0.46479030  0.17876288  0.40380505    -0.39630
C1765       C  0.94219121  0.81118935  0.37830471     0.03480
C1766       C  0.90830772  0.79903627  0.36789380    -0.12670
C1767       C  0.89070204  0.81352000  0.33820963     0.00980
C1768       C  0.90557237  0.84264262  0.32063791    -0.11190
C1769       C  0.93841911  0.85640155  0.33165102     0.03470
C1770       C  0.95717882  0.83987470  0.35970972    -0.10620
H1771       H  0.89607812  0.77746022  0.38236641     0.09070
H1772       H  0.89152823  0.85449386  0.29829722     0.06600
H1773       H  0.98361701  0.84901299  0.36665175     0.06440
C1774       C  0.86565101  0.88412566  0.10153914     0.03480
C1775       C  0.90128238  0.89362204  0.10985404    -0.12670
C1776       C  0.91884261  0.87869392  0.13961721     0.00980
C1777       C  0.90370532  0.84973384  0.15714661    -0.11190
C1778       C  0.87073658  0.83650436  0.14639913     0.03470
C1779       C  0.85130572  0.85447914  0.11994219    -0.10620
H1780       H  0.91470593  0.91451279  0.09561947     0.09070
H1781       H  0.91659766  0.83888314  0.18079580     0.06600
H1782       H  0.82400695  0.84642345  0.11635712     0.06440
C1783       C  0.68374731  0.88376132  0.38640240     0.03480
C1784       C  0.69436571  0.84910849  0.37641822    -0.12670
C1785       C  0.67791630  0.83145566  0.34729041     0.00980
C1786       C  0.64758821  0.84607886  0.33144219    -0.11190
C1787       C  0.63410031  0.87838627  0.34367232     0.03470
C1788       C  0.65279210  0.89754387  0.36998870    -0.10620
H1789       H  0.71730048  0.83699770  0.38878484     0.09070
H1790       H  0.63578811  0.83338248  0.30799214     0.06600
H1791       H  0.64442548  0.92446200  0.37510057     0.06440
C1792       C  0.94444693  0.64335013  0.11165109     0.03480
C1793       C  0.91044410  0.65366252  0.12305168    -0.12670
C1794       C  0.89364149  0.63738316  0.15229628     0.00980
C1795       C  0.90932180  0.60755935  0.16794273    -0.11190
C1796       C  0.94231775  0.59517156  0.15540748     0.03470
C1797       C  0.96047009  0.61424661  0.12849781    -0.10620
H1798       H  0.89743287  0.67526760  0.10948264     0.09070
H1799       H  0.89589849  0.59405254  0.18975941     0.06600
H1800       H  0.98710928  0.60663955  0.12077174     0.06440
C1801       C  0.95308981  0.88803328  0.31403400     0.42810
N1802       N  0.48469595  0.93416247  0.30526689     0.01700
C1803       C  0.98885873  0.54353022  0.15648026    -0.06180
H1804       H  0.49305673  0.91149890  0.12190738     0.07190
C1805       C  0.61187712  0.90837985  0.20344683    -0.06530
Co1806     Co  0.96173711  0.97488441  0.23996350     0.74180
N1807       N  0.48820735  0.93843090  0.17347581    -0.25710
Co1808     Co  0.52941943  0.97554103  0.17688734     0.74070
C1809       C  0.59895044  0.88979373  0.17145855     0.42910
N1810       N  0.58858931  0.93599834  0.28595012     0.01320
N1811       N  0.56739402  0.93600236  0.18004606     0.01420
N1812       N  0.94432810  0.54320328  0.19767552    -0.46550
H1813       H  0.91804952  0.89979879  0.26431066     0.07180
N1814       N  0.96347735  0.93764505  0.19864112     0.01710
N1815       N  0.57022707  0.51311972  0.18020484     0.01450
C1816       C  0.60835747  0.55361670  0.16787529     0.43050
N1817       N  0.56384061  0.93577525  0.31111049    -0.25160
C1818       C  0.93401579  0.53517263  0.28783930    -0.06080
N1819       N  0.48078417  0.90681723  0.32694339    -0.46270
N1820       N  0.57964211  0.53605924  0.15498978    -0.46490
C1821       C  0.94145332  0.54887515  0.32370011     0.42820
N1822       N  0.96534345  0.51528922  0.20127540     0.01690
N1823       N  0.56182876  0.51212077  0.31236472    -0.25180
N1824       N  0.96119983  0.93468791  0.27875895    -0.25680
N1825       N  0.58773122  0.51267011  0.28829105     0.01330
H1826       H  0.55061825  0.54352416  0.35971681     0.07220
H1827       H  0.63997900  0.54279215  0.21960976     0.07260
N1828       N  0.49146252  0.51505015  0.17744396    -0.25730
N1829       N  0.59068571  0.93644499  0.20668918    -0.25340
N1830       N  0.48157370  0.51089068  0.30929213     0.01700
C1831       C  0.94579220  0.89929444  0.15957320     0.43100
C1832       C  0.57304475  0.91168761  0.33599798    -0.06590
N1833       N  0.59221417  0.51340000  0.20788236    -0.25340
H1834       H  0.63308910  0.90170444  0.22182369     0.07240
N1835       N  0.93774468  0.91493229  0.19127682    -0.46560
H1836       H  0.55926933  0.90698241  0.36114023     0.07230
C1837       C  0.60030285  0.55482480  0.32498664     0.42930
C1838       C  0.93983452  0.90648873  0.28212469    -0.06090
Co1839     Co  0.52282217  0.97331063  0.31032665     0.73820
N1840       N  0.61452121  0.91331841  0.29211869    -0.46280
C1841       C  0.95775655  0.56231291  0.17002542     0.43200
N1842       N  0.97087777  0.53211373  0.33595229    -0.46270
Co1843     Co  0.59036440  0.97481487  0.24714382     0.73890
C1844       C  0.61693212  0.53831648  0.20272303    -0.06590
C1845       C  0.97904540  0.91538986  0.14710967    -0.06160
N1846       N  0.95971075  0.51163357  0.28146395    -0.25680
N1847       N  0.57136154  0.90843565  0.15816591    -0.46450
H1848       H  0.50676314  0.55009820  0.13469982     0.07200
C1849       C  0.56733206  0.53791785  0.33663457    -0.06570
Cl1850     Cl  0.52603803  0.97479454  0.24364761    -0.49570
C1851       C  0.60636999  0.89622495  0.32269670     0.42960
H1852       H  0.91094670  0.53941888  0.27099614     0.07170
N1853       N  0.61121344  0.53797621  0.29472847    -0.46280
C1854       C  0.61228100  0.80959151  0.11053138     0.03480
C1855       C  0.59631731  0.83899471  0.12788585    -0.12670
C1856       C  0.61412378  0.85760642  0.15516900     0.00980
C1857       C  0.64676359  0.84524385  0.16744405    -0.11190
C1858       C  0.66249282  0.81543820  0.15203520     0.03470
C1859       C  0.64640981  0.79908384  0.12210145    -0.10620
H1860       H  0.56976380  0.84739017  0.12076118     0.09070
H1861       H  0.66013888  0.85902279  0.18909529     0.06600
H1862       H  0.66055958  0.77812403  0.10841906     0.06440
C1863       C  0.86572439  0.56791354  0.38795730     0.03480
C1864       C  0.89702047  0.55261390  0.37394561    -0.12670
C1865       C  0.91521783  0.56882948  0.34526790     0.00980
C1866       C  0.90180861  0.60027780  0.33078363    -0.11190
C1867       C  0.87094337  0.61594723  0.34471293     0.03470
C1868       C  0.85341388  0.60007534  0.37383172    -0.10620
H1869       H  0.90527140  0.52673555  0.38311519     0.09070
H1870       H  0.91390330  0.61114234  0.30668988     0.06600
H1871       H  0.82811966  0.61060325  0.38290770     0.06440
C1872       C  0.60947385  0.64092743  0.37648153     0.03480
C1873       C  0.63697322  0.65674475  0.35600419    -0.12670
C1874       C  0.65566063  0.63750641  0.32967300     0.00980
C1875       C  0.64388673  0.60378678  0.31990702    -0.11190
C1876       C  0.61599906  0.58796011  0.33869967     0.03470
C1877       C  0.60177710  0.60505429  0.36908995    -0.10620
H1878       H  0.64430692  0.68408724  0.35968791     0.09070
H1879       H  0.65648426  0.58970309  0.29784040     0.06600
H1880       H  0.58426319  0.59014927  0.38620292     0.06440
C1881       C  0.68163642  0.56814928  0.10046843     0.03480
C1882       C  0.65071220  0.55450370  0.11662743    -0.12670
C1883       C  0.63445412  0.57234079  0.14548381     0.00980
C1884       C  0.64894002  0.60425004  0.15799338    -0.11190
C1885       C  0.67863080  0.61924123  0.14106036     0.03470
C1886       C  0.69407011  0.60181013  0.11135429    -0.10620
H1887       H  0.64152494  0.52819328  0.10946369     0.09070
H1888       H  0.63853728  0.61623718  0.18248135     0.06600
H1889       H  0.71822227  0.61237103  0.09964623     0.06440
C1890       C  0.85228332  0.64231934  0.32264658     0.42810
N1891       N  0.81240961  0.68074012  0.30924634     0.01700
C1892       C  0.71570199  0.67878728  0.14875737    -0.06180
H1893       H  0.84934452  0.70252698  0.13270929     0.07190
C1894       C  0.83810532  0.81693332  0.20394645    -0.06530
Co1895     Co  0.77602907  0.66070724  0.24037845     0.74180
N1896       N  0.81610043  0.68962595  0.17772529    -0.25710
Co1897     Co  0.77715845  0.72825572  0.17790358     0.74070
C1898       C  0.85323910  0.80946334  0.16866618     0.42910
N1899       N  0.81381590  0.78594569  0.28943464     0.01320
N1900       N  0.81499480  0.76911129  0.18153026     0.01420
N1901       N  0.71531300  0.63751478  0.19246426    -0.46550
H1902       H  0.84280147  0.61136266  0.27006940     0.07180
N1903       N  0.81601914  0.66357127  0.20126810     0.01710
N1904       N  0.73807802  0.76656967  0.18074729     0.01450
C1905       C  0.69481006  0.80095462  0.16866941     0.43050
N1906       N  0.81351696  0.76006561  0.31318448    -0.25160
C1907       C  0.70713751  0.63921910  0.28149113    -0.06080
N1908       N  0.83453612  0.67098781  0.33529789    -0.46270
N1909       N  0.71265977  0.77225915  0.15679057    -0.46490
C1910       C  0.68772735  0.65251711  0.31287727     0.42820
N1911       N  0.73852611  0.66282417  0.19959278     0.01690
N1912       N  0.73675938  0.76202816  0.31322105    -0.25180
N1913       N  0.81331251  0.65890694  0.28136600    -0.25680
N1914       N  0.73641083  0.78658915  0.28814398     0.01330
H1915       H  0.70930972  0.75749490  0.36434713     0.07220
H1916       H  0.70499570  0.83434380  0.22021399     0.07260
N1917       N  0.73934366  0.68753492  0.17467822    -0.25730
N1918       N  0.81453703  0.79101956  0.20938427    -0.25340
N1919       N  0.73487769  0.68338354  0.30590217     0.01700
C1920       C  0.86057391  0.65283404  0.16690112     0.43100
C1921       C  0.84033147  0.76489928  0.33644216    -0.06590
N1922       N  0.73779050  0.78958480  0.20770883    -0.25340
H1923       H  0.84123942  0.84024086  0.22073754     0.07240
N1924       N  0.84238383  0.64089311  0.19585286    -0.46560
H1925       H  0.84646591  0.74790387  0.35893756     0.07230
C1926       C  0.69755608  0.80435222  0.32668585     0.42930
C1927       C  0.83797282  0.63419173  0.28711764    -0.06090
Co1928     Co  0.77441580  0.72134960  0.31124631     0.73820
N1929       N  0.83994547  0.80874829  0.29506014    -0.46280
C1930       C  0.69926023  0.64586527  0.16125335     0.43200
N1931       N  0.70659797  0.67973578  0.32678220    -0.46270
Co1932     Co  0.77562232  0.78873174  0.24874662     0.73890
C1933       C  0.71129900  0.81239291  0.20252339    -0.06590
C1934       C  0.84321748  0.68522990  0.15496969    -0.06160
N1935       N  0.73577151  0.66015103  0.27914711    -0.25680
N1936       N  0.83700321  0.77994944  0.15582104    -0.46450
H1937       H  0.71158003  0.69286673  0.12380000     0.07200
C1938       C  0.71333183  0.77121148  0.33915328    -0.06570
Cl1939     Cl  0.77592631  0.72478315  0.24455050    -0.49570
C1940       C  0.85772455  0.79732948  0.32436548     0.42960
H1941       H  0.70053224  0.61793331  0.26305571     0.07170
N1942       N  0.71374024  0.81235681  0.29534340    -0.46280
C1943       C  0.76856257  0.98132854  0.47489703     0.00920
C1944       C  0.77362906  0.97381956  0.51133869     0.00920
C1945       C  0.52107525  0.73049200  0.97389385     0.00920
C1946       C  0.52014517  0.73371534  0.01084101     0.00920
C1947       C  0.52671282  0.72689088  0.47716051     0.00920
C1948       C  0.52600071  0.72687907  0.51425556     0.00920
C1949       C  0.76684378  0.96925750  0.01436687     0.00920
C1950       C  0.76900853  0.97044818  0.97733872     0.00920
C1951       C  0.85813583  0.89272851  0.87778558     0.03480
C1952       C  0.89157712  0.90502075  0.86663031    -0.12670
C1953       C  0.90885396  0.88986648  0.83684714     0.00980
C1954       C  0.89377573  0.86050592  0.81958050    -0.11190
C1955       C  0.86106348  0.84696818  0.83108592     0.03470
C1956       C  0.84271255  0.86397397  0.85924854    -0.10620
H1957       H  0.90390231  0.92679350  0.88097954     0.09070
H1958       H  0.90770356  0.84818588  0.79726462     0.06600
H1959       H  0.81642398  0.85482940  0.86663077     0.06440
C1960       C  0.93186506  0.63411548  0.88998922     0.03480
C1961       C  0.90150191  0.64928556  0.87399790    -0.12670
C1962       C  0.88440965  0.63256743  0.84490340     0.00980
C1963       C  0.89800198  0.60082546  0.83120944    -0.11190
C1964       C  0.92796173  0.58510935  0.84666242     0.03470
C1965       C  0.94407474  0.60111035  0.87682359    -0.10620
H1966       H  0.89312163  0.67564347  0.88182441     0.09070
H1967       H  0.88684094  0.58970412  0.80663003     0.06600
H1968       H  0.96812825  0.58960272  0.88768433     0.06440
C1969       C  0.69042907  0.55999460  0.87852195     0.03480
C1970       C  0.65783484  0.54848671  0.86417596    -0.12670
C1971       C  0.64184395  0.56640985  0.83549039     0.00980
C1972       C  0.65788046  0.59695988  0.82199846    -0.11190
C1973       C  0.69003308  0.60932133  0.83638521     0.03470
C1974       C  0.70654630  0.59043768  0.86431170    -0.10620
H1975       H  0.64536455  0.52492773  0.87488516     0.09070
H1976       H  0.64541617  0.61116876  0.80014709     0.06600
H1977       H  0.73214957  0.59886928  0.87456627     0.06440
C1978       C  0.61508370  0.81909131  0.88692705     0.03480
C1979       C  0.60350357  0.85232113  0.87450651    -0.12670
C1980       C  0.62156155  0.86954792  0.84648426     0.00980
C1981       C  0.65231346  0.85418193  0.83186566    -0.11190
C1982       C  0.66533867  0.82210455  0.84516717     0.03470
C1983       C  0.64649303  0.80451198  0.87239190    -0.10620
H1984       H  0.57870891  0.86329024  0.88439397     0.09070
H1985       H  0.66487423  0.86609472  0.80855984     0.06600
H1986       H  0.65469032  0.77814646  0.88006622     0.06440
C1987       C  0.61511371  0.63349331  0.60134340     0.03480
C1988       C  0.64638463  0.64783666  0.61674618    -0.12670
C1989       C  0.66427253  0.63012316  0.64455911     0.00980
C1990       C  0.65034711  0.59843944  0.65774663    -0.11190
C1991       C  0.61960925  0.58365087  0.64275916     0.03470
C1992       C  0.60269829  0.60056235  0.61389291    -0.10620
H1993       H  0.65513516  0.67411531  0.60935124     0.09070
H1994       H  0.66207620  0.58652130  0.68148003     0.06600
H1995       H  0.57815169  0.58955622  0.60339703     0.06440
C1996       C  0.85295020  0.55439099  0.61778115     0.03480
C1997       C  0.88318185  0.53975552  0.63386952    -0.12670
C1998       C  0.90323509  0.55912825  0.65903628     0.00980
C1999       C  0.89132351  0.59256752  0.67034948    -0.11190
C2000       C  0.86075951  0.60736788  0.65490809     0.03470
C2001       C  0.84286526  0.58882054  0.62743219    -0.10620
H2002       H  0.89097891  0.51308209  0.62676885     0.09070
H2003       H  0.90596770  0.60715084  0.69077182     0.06600
H2004       H  0.82049070  0.60072847  0.61389974     0.06440
C2005       C  0.84647271  0.81476734  0.81417381     0.42810
N2006       N  0.81557432  0.76793440  0.80610984     0.01700
C2007       C  0.81464810  0.65920831  0.65515399    -0.06180
H2008       H  0.80877283  0.78948835  0.62331574     0.07190
C2009       C  0.68690852  0.79009119  0.70267907    -0.06530
Co2010     Co  0.83934195  0.72697576  0.74069931     0.74180
N2011       N  0.81273378  0.76306548  0.67484510    -0.25710
Co2012     Co  0.77182903  0.72524307  0.67734846     0.74070
C2013       C  0.69916604  0.80758700  0.66989105     0.42910
N2014       N  0.71157634  0.76389405  0.78709067     0.01320
N2015       N  0.73296829  0.76367111  0.68063983     0.01420
N2016       N  0.85889902  0.66002980  0.69668576    -0.46550
H2017       H  0.88157574  0.80237087  0.76458054     0.07180
N2018       N  0.83728989  0.76404158  0.70020001     0.01710
N2019       N  0.73115972  0.68718424  0.67982160     0.01450
C2020       C  0.69126672  0.64861265  0.66633615     0.43050
N2021       N  0.73629660  0.76458844  0.81227288    -0.25160
C2022       C  0.86683803  0.66617531  0.78752653    -0.06080
N2023       N  0.81903508  0.79590468  0.82745280    -0.46270
N2024       N  0.72045162  0.66547741  0.65362597    -0.46490
C2025       C  0.85869402  0.65216639  0.82295392     0.42820
N2026       N  0.83674762  0.68693521  0.70129570     0.01690
N2027       N  0.74066838  0.68798019  0.81191827    -0.25180
N2028       N  0.83914622  0.76719488  0.77967980    -0.25680
N2029       N  0.71477046  0.68672527  0.78789453     0.01330
H2030       H  0.75497181  0.65490519  0.85675572     0.07220
H2031       H  0.66067193  0.65908893  0.71877289     0.07260
N2032       N  0.81072131  0.68678449  0.67738249    -0.25730
N2033       N  0.70948302  0.76324942  0.70715779    -0.25340
N2034       N  0.81966574  0.69112622  0.80927211     0.01700
C2035       C  0.85554931  0.80199104  0.66172422     0.43100
C2036       C  0.72654692  0.78834893  0.83764472    -0.06590
N2037       N  0.70943554  0.68675233  0.70774643    -0.25340
H2038       H  0.66491635  0.79634611  0.72036882     0.07240
N2039       N  0.86320958  0.78655619  0.69329314    -0.46560
H2040       H  0.74027021  0.79333690  0.86281738     0.07230
C2041       C  0.70617290  0.64160250  0.82148840     0.42930
C2042       C  0.86002401  0.79574190  0.78262005    -0.06090
Co2043     Co  0.77816992  0.72800756  0.81078837     0.73820
N2044       N  0.68514597  0.78602104  0.79364956    -0.46280
C2045       C  0.84662351  0.64150466  0.66789315     0.43200
N2046       N  0.82960982  0.66939036  0.83539494    -0.46270
Co2047     Co  0.71076495  0.72506681  0.74755371     0.73890
C2048       C  0.68387947  0.66286851  0.70197648    -0.06590
C2049       C  0.82229915  0.78592922  0.64878124    -0.06160
N2050       N  0.84161576  0.69025010  0.78155082    -0.25680
N2051       N  0.72786115  0.78983927  0.65774892    -0.46450
H2052       H  0.79702605  0.65268196  0.63305373     0.07200
C2053       C  0.73750317  0.66056779  0.83436707    -0.06570
Cl2054     Cl  0.77501337  0.72630397  0.74407430    -0.49570
C2055       C  0.69288994  0.80308024  0.82462560     0.42960
H2056       H  0.88985057  0.66149371  0.77065093     0.07170
N2057       N  0.69341916  0.65933958  0.79271579    -0.46280
C2058       C  0.93357629  0.81912933  0.60023723     0.03480
C2059       C  0.90133694  0.80495891  0.61328841    -0.12670
C2060       C  0.88301398  0.82151328  0.64177534     0.00980
C2061       C  0.89733215  0.85207135  0.65771439    -0.11190
C2062       C  0.92888390  0.86699475  0.64473047     0.03470
C2063       C  0.94633767  0.85107440  0.61535446    -0.10620
H2064       H  0.89227036  0.77935145  0.60372011     0.09070
H2065       H  0.88512383  0.86294343  0.68187601     0.06600
H2066       H  0.97157504  0.86180324  0.60648014     0.06440
C2067       C  0.69097534  0.88885481  0.61138984     0.03480
C2068       C  0.70248445  0.85605255  0.62465717    -0.12670
C2069       C  0.68533894  0.84027779  0.65396283     0.00980
C2070       C  0.65535978  0.85632475  0.66886164    -0.11190
C2071       C  0.64294192  0.88868012  0.65600821     0.03470
C2072       C  0.66132254  0.90537699  0.62780644    -0.10620
H2073       H  0.72506583  0.84289221  0.61241843     0.09070
H2074       H  0.64156633  0.84337913  0.69060430     0.06600
H2075       H  0.65270576  0.93119275  0.61887547     0.06680
C2076       C  0.94753758  0.55887891  0.82488222     0.42810
N2077       N  0.98740769  0.52047250  0.81110546     0.01700
C2078       C  0.58458728  0.52364360  0.65088975    -0.06180
H2079       H  0.94896292  0.49570631  0.63689415     0.07190
C2080       C  0.96262621  0.88522407  0.70250744    -0.06530
Co2081     Co  0.52403056  0.54085062  0.74277749     0.74180
N2082       N  0.98442039  0.51098362  0.67970299    -0.25710
Co2083     Co  0.52442851  0.97343770  0.67891247     0.74070
C2084       C  0.94767980  0.89327041  0.66727875     0.42910
N2085       N  0.98658037  0.91566932  0.78880254     0.01320
N2086       N  0.98710715  0.93232777  0.68092322     0.01420
N2087       N  0.58447124  0.56509286  0.69501642    -0.46550
H2088       H  0.95707052  0.58974212  0.77270897     0.07180
N2089       N  0.98411398  0.53694352  0.70372640     0.01710
N2090       N  0.56458765  0.93591794  0.68184039     0.01450
C2091       C  0.61090345  0.90431017  0.67271668     0.43050
N2092       N  0.98699642  0.94145918  0.81300756    -0.25160
C2093       C  0.59094514  0.56468084  0.78653219    -0.06080
N2094       N  0.96526281  0.53026484  0.83730307    -0.46270
N2095       N  0.59201357  0.93178119  0.65969699    -0.46490
C2096       C  0.60906103  0.55246413  0.81903830     0.42820
N2097       N  0.56182187  0.53933643  0.70210098     0.01690
N2098       N  0.56374376  0.93966991  0.81361765    -0.25180
N2099       N  0.98649888  0.54223968  0.78348746    -0.25680
N2100       N  0.56405398  0.91515425  0.78816242     0.01330
H2101       H  0.59148557  0.94392683  0.86462492     0.07220
H2102       H  0.59924487  0.87053534  0.72312230     0.07260
N2103       N  0.56133408  0.51462512  0.67685212    -0.25730
N2104       N  0.98694043  0.91044692  0.70844729    -0.25340
N2105       N  0.56447040  0.51890836  0.80859614     0.01700
C2106       C  0.93675815  0.54436210  0.67274905     0.43100
C2107       C  0.95990773  0.93718603  0.83585320    -0.06590
N2108       N  0.56436931  0.91283809  0.70842536    -0.25340
H2109       H  0.95849362  0.86215306  0.71910413     0.07240
N2110       N  0.95597986  0.55772165  0.70044056    -0.46560
H2111       H  0.95378453  0.95444542  0.85837527     0.07230
C2112       C  0.60331268  0.89732011  0.82593012     0.42930
C2113       C  0.96182649  0.56691233  0.78946384    -0.06090
Co2114     Co  0.52572504  0.98020181  0.81240714     0.73820
N2115       N  0.95992907  0.89336390  0.79379293    -0.46280
C2116       C  0.60041502  0.55682282  0.66355690     0.43200
N2117       N  0.59120017  0.52399851  0.83117687    -0.46270
Co2118     Co  0.52536854  0.91293146  0.74847991     0.73890
C2119       C  0.59254120  0.89171766  0.70493156    -0.06590
C2120       C  0.95564899  0.51350752  0.65881558    -0.06160
N2121       N  0.56368990  0.54223870  0.78222904    -0.25680
N2122       N  0.96479406  0.92231408  0.65500055    -0.46450
H2123       H  0.58862920  0.50965009  0.62567403     0.07200
C2124       C  0.58739985  0.93038554  0.83915975    -0.06570
Cl2125     Cl  0.52489621  0.97685028  0.74566565    -0.49570
C2126       C  0.94207655  0.90523889  0.82309508     0.42960
H2127       H  0.59705493  0.58664834  0.76905874     0.07170
N2128       N  0.58686556  0.88945202  0.79467217    -0.46280
C2129       C  0.74358932  0.52993251  0.96067176    -0.11920
C2130       C  0.74571353  0.49325156  0.95421552     0.05090
C2131       C  0.72911556  0.97909895  0.92292081    -0.07200
C2132       C  0.71155130  0.50164642  0.89916802    -0.07950
C2133       C  0.70878053  0.53805272  0.90594726    -0.02500
C2134       C  0.72448891  0.55236905  0.93756237     0.04320
N2135       N  0.72073021  0.58914581  0.94704962     0.66820
H2136       H  0.75694634  0.54125827  0.98389351     0.15720
H2137       H  0.69990816  0.49046395  0.87488695     0.15430
N2138       N  0.72997748  0.94196142  0.91445992     0.74530
O2139       O  0.74497989  0.60482293  0.96448182    -0.38920
O2140       O  0.69161835  0.60490948  0.94187690    -0.38860
O2141       O  0.71991203  0.91963064  0.93745311    -0.39570
O2142       O  0.73552525  0.93181096  0.88242143    -0.39630
C2143       C  0.83982794  0.94876190  0.90818234    -0.11920
C2144       C  0.83871036  0.91156442  0.90721668     0.05090
C2145       C  0.81791224  0.89360534  0.93320220    -0.07200
C2146       C  0.79642620  0.91328462  0.95682057    -0.07950
C2147       C  0.79697448  0.95037839  0.95711296    -0.02500
C2148       C  0.82036877  0.96823369  0.93361337     0.04320
N2149       N  0.82438861  0.00606639  0.93509541     0.66820
H2150       H  0.85572477  0.96300563  0.88871928     0.15720
H2151       H  0.77822480  0.89945831  0.97420003     0.15430
N2152       N  0.81844757  0.85570875  0.93629627     0.74530
O2153       O  0.83109533  0.02323837  0.90678081    -0.38920
O2154       O  0.82560479  0.52184189  0.96520768    -0.38860
O2155       O  0.84748760  0.83910851  0.93417046    -0.39570
O2156       O  0.79067198  0.83917811  0.94532039    -0.39630
C2157       C  0.55563262  0.65676092  0.58219693    -0.11920
C2158       C  0.59265952  0.65520632  0.57645678     0.05090
C2159       C  0.60755258  0.67647846  0.54902655    -0.07200
C2160       C  0.58565413  0.70015124  0.53024203    -0.07950
C2161       C  0.54855914  0.70116473  0.53530178    -0.02500
C2162       C  0.53341922  0.67844590  0.56131461     0.04320
N2163       N  0.49558490  0.67644907  0.56641226     0.66820
H2164       H  0.54367150  0.64086840  0.60315730     0.15720
H2165       H  0.59793458  0.71776328  0.51126031     0.15430
N2166       N  0.64443950  0.67367075  0.53903657     0.74530
O2167       O  0.48287224  0.67169807  0.59754427    -0.38920
O2168       O  0.47519712  0.67422004  0.53944507    -0.38860
O2169       O  0.65935318  0.64378628  0.53777280    -0.39570
O2170       O  0.66087735  0.70024763  0.52701632    -0.39630
C2171       C  0.96596526  0.75489236  0.52701119    -0.11920
C2172       C  0.00242058  0.75193172  0.53529382     0.05090
C2173       C  0.01594868  0.77219779  0.56444571    -0.07200
C2174       C  0.99300010  0.79380681  0.58470917    -0.07950
C2175       C  0.95685363  0.79760280  0.57573334    -0.02500
C2176       C  0.94345441  0.77848679  0.54565831     0.04320
N2177       N  0.90765177  0.78348863  0.53293050     0.66820
H2178       H  0.95488270  0.73910933  0.50538825     0.15720
H2179       H  0.00372596  0.80788914  0.60781946     0.15430
N2180       N  0.55304888  0.77185023  0.57348100     0.74530
O2181       O  0.89159418  0.75871470  0.51671284    -0.38920
O2182       O  0.89369749  0.81384253  0.53367343    -0.38860
O2183       O  0.57597834  0.77836526  0.54956418    -0.39570
O2184       O  0.06258830  0.77081390  0.60611615    -0.39630
C2185       C  0.58182882  0.75480018  0.95873151    -0.11920
C2186       C  0.54514620  0.75330139  0.95125434     0.05090
C2187       C  0.53188188  0.77318018  0.92187716    -0.07200
C2188       C  0.55530265  0.79435846  0.90181366    -0.07950
C2189       C  0.59159154  0.79730258  0.91061744    -0.02500
C2190       C  0.60490186  0.77732906  0.93981541     0.04320
N2191       N  0.64131032  0.78031003  0.95139642     0.66820
H2192       H  0.59268986  0.73861493  0.97995494     0.15720
H2193       H  0.54490020  0.80893780  0.87908181     0.15430
N2194       N  0.49468706  0.77333010  0.91269759     0.74530
O2195       O  0.65657270  0.81007111  0.95202862    -0.38920
O2196       O  0.65691976  0.75406151  0.96506227    -0.38860
O2197       O  0.47140968  0.77704867  0.93696363    -0.39570
O2198       O  0.98528130  0.77519604  0.88006620    -0.39630
C2199       C  0.99130306  0.65677515  0.90968687    -0.11920
C2200       C  0.95428277  0.65573165  0.91529771     0.05090
C2201       C  0.93944284  0.67797600  0.94235009    -0.07200
C2202       C  0.96146630  0.70231017  0.96062194    -0.07950
C2203       C  0.99839940  0.70351364  0.95460516    -0.02500
C2204       C  0.01350217  0.67931921  0.92978391     0.04320
N2205       N  0.55136508  0.67639331  0.92557740     0.66820
H2206       H  0.00328710  0.63997883  0.88929204     0.15720
H2207       H  0.94969986  0.72030801  0.98003710     0.15430
N2208       N  0.90247890  0.67572989  0.95219115     0.74530
O2209       O  0.57100939  0.67427302  0.95309608    -0.38920
O2210       O  0.56461435  0.67029796  0.89485713    -0.38860
O2211       O  0.88695488  0.64611190  0.95293179    -0.39570
O2212       O  0.88635599  0.70266365  0.96409068    -0.39630
C2213       C  0.77734300  0.51610606  0.56150904    -0.11920
C2214       C  0.79589280  0.49545124  0.53615925     0.05090
C2215       C  0.83364193  0.49350956  0.53805781    -0.07200
C2216       C  0.85116058  0.51373697  0.56459797    -0.07950
C2217       C  0.83245176  0.53380433  0.59043648    -0.02500
C2218       C  0.79484817  0.53420303  0.58927220     0.04320
N2219       N  0.77387701  0.55096527  0.61697567     0.66820
H2220       H  0.74852792  0.51661201  0.56072878     0.15720
H2221       H  0.87993682  0.51402334  0.56497477     0.15430
N2222       N  0.85473144  0.47190299  0.51381032     0.74530
O2223       O  0.74518799  0.56633239  0.60892649    -0.38920
O2224       O  0.78136908  0.54639530  0.64982491    -0.38860
O2225       O  0.88694829  0.46567032  0.52094757    -0.39570
O2226       O  0.84187125  0.95908026  0.48513903    -0.39630
C2227       C  0.74861149  0.90506292  0.58209584    -0.11920
C2228       C  0.71126520  0.90648313  0.58186809     0.05090
C2229       C  0.69434865  0.92639006  0.55470642    -0.07200
C2230       C  0.71509075  0.94836145  0.53272583    -0.07950
C2231       C  0.75237514  0.94625623  0.53170751    -0.02500
C2232       C  0.76902810  0.92314856  0.55649644     0.04320
N2233       N  0.80675702  0.91838711  0.55683124     0.66820
H2234       H  0.76235550  0.88989258  0.60248363     0.15720
H2235       H  0.70168886  0.96824303  0.51746586     0.15430
N2236       N  0.65663048  0.92377287  0.54832633     0.74530
O2237       O  0.82373682  0.92179373  0.58604934    -0.38920
O2238       O  0.82157747  0.90345610  0.53027528    -0.38860
O2239       O  0.64093485  0.89449503  0.55222545    -0.39570
O2240       O  0.64025262  0.94862111  0.53298018    -0.39630
C2241       C  0.75953898  0.51520554  0.06256542    -0.11920
C2242       C  0.74328987  0.49400826  0.03589587     0.05090
C2243       C  0.70612196  0.49834675  0.02998715    -0.07200
C2244       C  0.68726328  0.52394053  0.05011883    -0.07950
C2245       C  0.70371360  0.54436943  0.07719121    -0.02500
C2246       C  0.74041367  0.53939378  0.08365648     0.04320
N2247       N  0.75853315  0.55700337  0.11281098     0.66820
H2248       H  0.78755432  0.51282029  0.06796421     0.15720
H2249       H  0.65904401  0.52720861  0.04535638     0.15430
N2250       N  0.68677397  0.47709382  0.00432988     0.74530
O2251       O  0.74651174  0.55498477  0.14454454    -0.38920
O2252       O  0.78924130  0.56964012  0.10791911    -0.38860
O2253       O  0.69336260  0.94458980  0.00083429    -0.39570
O2254       O  0.66042554  0.48989438  0.98784731    -0.39630
C2255       C  0.60310497  0.69409078  0.41802476    -0.11920
C2256       C  0.58913116  0.66175983  0.40483530     0.05090
C2257       C  0.55574757  0.65066640  0.41908735    -0.07200
C2258       C  0.54051126  0.66944485  0.44782287    -0.07950
C2259       C  0.55158659  0.70379543  0.45626538    -0.02500
C2260       C  0.58342700  0.71675779  0.44064182     0.04320
N2261       N  0.59665255  0.75219832  0.44727757     0.66820
H2262       H  0.62924435  0.70282965  0.41028070     0.15720
H2263       H  0.51698749  0.65890670  0.46053513     0.15430
N2264       N  0.53424915  0.62398147  0.40202026     0.74530
O2265       O  0.62116233  0.76473275  0.42784936    -0.38920
O2266       O  0.58495247  0.77096292  0.47288674    -0.38860
O2267       O  0.51700449  0.60225564  0.42096926    -0.39570
O2268       O  0.52730699  0.62625459  0.36877335    -0.39630
C2269       C  0.81286600  0.53435769  0.46862391    -0.11920
C2270       C  0.78957946  0.50916059  0.45263623     0.05090
C2271       C  0.78872216  0.50943027  0.41402701    -0.07200
C2272       C  0.81508872  0.52715837  0.39438456    -0.07950
C2273       C  0.84158788  0.54707951  0.41137411    -0.02500
C2274       C  0.84031862  0.55128594  0.44916841     0.04320
N2275       N  0.86652300  0.57221958  0.46824382     0.66820
H2276       H  0.80976801  0.54225763  0.49618458     0.15720
H2277       H  0.81375829  0.52686523  0.36514095     0.15430
N2278       N  0.75874290  0.99682624  0.39393277     0.74530
O2279       O  0.86075597  0.58248423  0.50020717    -0.38920
O2280       O  0.89714481  0.57685529  0.45510761    -0.38860
O2281       O  0.73040870  0.51473832  0.39474330    -0.39570
O2282       O  0.76350079  0.97525866  0.36824521    -0.39630
C2283       C  0.57275830  0.73663780  0.05024131    -0.11920
C2284       C  0.54652712  0.75538774  0.03149277     0.05090
C2285       C  0.54426705  0.79245126  0.03649467    -0.07200
C2286       C  0.56806881  0.80926667  0.06007705    -0.07950
C2287       C  0.59240590  0.79021711  0.08130785    -0.02500
C2288       C  0.59515622  0.75319889  0.07527203     0.04320
N2289       N  0.61887604  0.73129309  0.09535332     0.66820
H2290       H  0.57466695  0.70820947  0.04669138     0.15720
H2291       H  0.56665012  0.83777562  0.06232076     0.15430
N2292       N  0.51676014  0.81339573  0.02049158     0.74530
O2293       O  0.61301086  0.72552969  0.12832522    -0.38920
O2294       O  0.64222994  0.71339578  0.07895406    -0.38860
O2295       O  0.00130258  0.83686710  0.03912921    -0.39570
O2296       O  0.51245969  0.81330132  0.98682584    -0.39630
C2297       C  0.95925145  0.70202825  0.08547405    -0.11920
C2298       C  0.96341735  0.66504772  0.08400437     0.05090
C2299       C  0.98524953  0.65033818  0.05648912    -0.07200
C2300       C  0.00352252  0.67306877  0.03290146    -0.07950
C2301       C  0.99811660  0.70984781  0.03392520    -0.02500
C2302       C  0.97479035  0.72415472  0.05990075     0.04320
N2303       N  0.96512671  0.76081779  0.05948702     0.66820
H2304       H  0.94299367  0.71406120  0.10629925     0.15720
H2305       H  0.02155962  0.66195525  0.01307749     0.15430
N2306       N  0.98815912  0.61277252  0.05108548     0.74530
O2307       O  0.95317823  0.77406588  0.03077368    -0.38920
O2308       O  0.96164613  0.77773077  0.08877006    -0.38860
O2309       O  0.96072138  0.59352283  0.05199881    -0.39570
O2310       O  0.01714180  0.59945876  0.04049133    -0.39630
C2311       C  0.76219171  0.92703092  0.43748923    -0.11920
C2312       C  0.74554190  0.95598004  0.45417410     0.05090
C2313       C  0.70859661  0.96131392  0.44851502    -0.07200
C2314       C  0.68919774  0.93498136  0.43004583    -0.07950
C2315       C  0.70595911  0.90716604  0.41094091    -0.02500
C2316       C  0.74363037  0.90445072  0.41381137     0.04320
N2317       N  0.76415123  0.88213996  0.39025706     0.66820
H2318       H  0.79074771  0.92420177  0.44006826     0.15720
H2319       H  0.66060765  0.93737923  0.42934206     0.15430
N2320       N  0.69051127  0.99341438  0.45976059     0.74530
O2321       O  0.76022505  0.88445566  0.35651491    -0.38920
O2322       O  0.79063552  0.86556057  0.40243270    -0.38860
O2323       O  0.70752071  0.01984827  0.47162112    -0.39570
O2324       O  0.65714721  0.99589415  0.45689161    -0.39630
C2325       C  0.82596669  0.96070850  0.04486036    -0.11920
C2326       C  0.79273754  0.94681529  0.03515811     0.05090
C2327       C  0.78465860  0.91190558  0.04537836    -0.07200
C2328       C  0.81046226  0.89131306  0.06274524    -0.07950
C2329       C  0.84218209  0.90621704  0.07676132    -0.02500
C2330       C  0.84885643  0.94250992  0.06835981     0.04320
N2331       N  0.87574368  0.96294197  0.08631924     0.66820
H2332       H  0.83266568  0.98743231  0.03695878     0.15720
H2333       H  0.80413230  0.86379243  0.06669831     0.15430
N2334       N  0.74988226  0.89735324  0.03987828     0.74530
O2335       O  0.89527505  0.98356468  0.06838696    -0.38920
O2336       O  0.87504382  0.96589512  0.12027500    -0.38860
O2337       O  0.74652297  0.86649786  0.02707816    -0.39570
O2338       O  0.72389494  0.91120206  0.05618286    -0.39630
C2339       C  0.00518877  0.78629210  0.45562245    -0.11920
C2340       C  0.00252819  0.74920515  0.45461832     0.05090
C2341       C  0.97815987  0.73340308  0.43030649    -0.07200
C2342       C  0.96040387  0.75424932  0.40528729    -0.07950
C2343       C  0.96275563  0.79127512  0.40601775    -0.02500
C2344       C  0.98465427  0.80761781  0.43254044     0.04320
N2345       N  0.98537752  0.84536796  0.43745314     0.66820
H2346       H  0.02254804  0.79874825  0.47523841     0.15720
H2347       H  0.94371001  0.74107231  0.38554241     0.15430
N2348       N  0.96873467  0.69672933  0.43237752     0.74530
O2349       O  0.01347649  0.86053183  0.44801062    -0.38920
O2350       O  0.95694209  0.86300289  0.43589087    -0.38860
O2351       O  0.95702055  0.68455057  0.46170249    -0.39570
O2352       O  0.46479019  0.67876218  0.40380451    -0.39630
loop_ 
_geom_bond_atom_site_label_1 
_geom_bond_atom_site_label_2 
_geom_bond_distance 
_geom_bond_site_symmetry_2 
_ccdc_geom_bond_type 
C1            C2   1.407       .  A
C1            C6   1.406       .  A
C1          C579   1.494       .  S
C2            C3   1.399       .  A
C2            H7   1.081       .  S
C3            C4   1.399       .  A
C3          C176   1.473       .  S
C4            C5   1.400       .  A
C4            H8   1.082       .  S
C5            C6   1.407       .  A
C5           C37   1.473       .  S
C6            H9   1.083       .  S
C10          C11   1.420       .  A
C10          C15   1.422       .  A
C10         C565   1.527       .  S
C11          C12   1.407       .  A
C11          H16   1.078       .  S
C12          C13   1.397       .  A
C12          C67   1.474       .  S
C13          C14   1.394       .  A
C13          H17   1.085       .  S
C14          C15   1.403       .  A
C14         C134   1.473       .  S
C15          H18   1.079       .  S
C19          C20   1.417       .  A
C19          C24   1.415       .  A
C19         C551   1.515       .  S
C20          C21   1.408       .  A
C20          H25   1.081       .  S
C21          C22   1.399       .  A
C21         C162   1.473       .  S
C22          C23   1.396       .  A
C22          H26   1.085       .  S
C23          C24   1.400       .  A
C23          C87   1.468       .  S
C24          H27   1.081       .  S
C28          C29   1.402       .  A
C28          C33   1.405       .  A
C28         C534   1.497       .  S
C29          C30   1.400       .  A
C29          H34   1.080       .  S
C30          C31   1.402       .  A
C30         C156   1.476       .  S
C31          C32   1.405       .  A
C31          H35   1.083       .  S
C32          C33   1.410       .  A
C32          C77   1.478       .  S
C33          H36   1.081       .  S
C37          C74   1.465       .  S
C37        N1231   1.346       .  A
N38          N55   1.322       .  A
N38        N1236   1.322       .  A
N38         Co75   2.067   1_655  S
C39          C77   1.457       .  S
C39        H1260   1.081       .  S
C39        N1240   1.336       .  A
H40        C1257   1.081       .  S
C41          C45   1.457       .  S
C41          H70   1.080       .  S
C41          N65   1.333       .  A
Co42         N60   2.099       .  S
Co42         N50   2.074       .  S
Co42        N670   2.067       .  S
Co42        N646   2.106       .  S
Co42      Cl1262   2.422       .  S
N43        C1257   1.349       .  A
N43        N1226   1.317       .  A
N43         Co44   2.093   1_655  S
Co44         N47   2.073       .  S
Co44        N652   2.068   1_455  S
Co44        N639   2.093       .  S
Co44        Cl86   2.477       .  S
C45          C92   1.471       .  S
C45          N83   1.350       .  A
N46          N53   1.317       .  A
N46          N76   1.321       .  A
N46         Co79   2.063       .  S
N47          N65   1.320       .  A
N47          N83   1.325       .  A
N48          C77   1.355       .  A
N48          N58   1.327       .  A
H49          C74   1.081       .  S
N50          N71   1.320       .  A
N50        N1219   1.317       .  A
N51          N69   1.318       .  A
N51          N56   1.327       .  A
N51        Co632   2.093   1_545  S
C52          C80   1.455       .  S
C52         C119   1.469       .  S
C52          N56   1.353       .  A
N53          C68   1.346       .  A
N53         Co75   2.098       .  S
C54          C57   1.450       .  S
C54          H88   1.082       .  S
C54          N82   1.335       .  A
N55        C1213   1.346       .  A
C57         C101   1.475       .  S
C57          N78   1.356       .  A
N58        N1240   1.321       .  A
N58        Co630   2.106   1_545  S
N59          C85   1.338       .  A
N59          N61   1.321       .  A
N59        Co663   2.075   1_545  S
N60          C74   1.341       .  A
N60        N1214   1.322       .  A
N61          N89   1.322       .  A
N61        Co667   2.087   1_545  S
H62          C85   1.081       .  S
H63          C80   1.082       .  S
N64        C1215   1.336       .  A
N64        N1234   1.321       .  A
N64        Co632   2.068   1_645  S
N65         Co79   2.079       .  S
N66        N1254   1.331       .  A
N66        N1258   1.320       .  A
N66        Co663   2.106   1_645  S
C67          C81   1.466       .  S
C67          N71   1.346       .  A
C68          C87   1.467       .  S
C68          H72   1.082       .  S
N69          C80   1.337       .  A
N69        Co667   2.068   1_545  S
C73          C85   1.461       .  S
C73         C112   1.472       .  S
C73          N89   1.350       .  A
Co75        N647   2.075       .  S
Co75        N654   2.106   1_455  S
Co75        Cl86   2.475       .  S
N76          C87   1.343       .  A
N78        N1242   1.331       .  A
Co79        N649   2.087       .  S
Co79        N657   2.068       .  S
Co79        Cl86   2.423       .  S
C81        H1216   1.081       .  S
C81        N1219   1.349       .  A
N82        N1242   1.320       .  A
N82        Co630   2.067   1_545  S
H84        C1215   1.081   1_455  S
Cl86      Co1218   2.422   1_455  S
C90          C91   1.415       .  A
C90          C95   1.412       .  A
C90         C523   1.502       .  S
C91          C92   1.398       .  A
C91          H96   1.082       .  S
C92          C93   1.392       .  A
C93          C94   1.392       .  A
C93          H97   1.078       .  S
C94          C95   1.403       .  A
C94         C141   1.471       .  S
C95          H98   1.079       .  S
C99         C100   1.410       .  A
C99         C104   1.406       .  A
C99         C509   1.485       .  S
C100        C101   1.407       .  A
C100        H105   1.084       .  S
C101        C102   1.402       .  A
C102        C103   1.401       .  A
C102        H106   1.085       .  S
C103        C104   1.402       .  A
C103        C126   1.473       .  S
C104        H107   1.084       .  S
C108        C109   1.417       .  A
C108        C113   1.412       .  A
C108        C492   1.516       .  S
C109        C110   1.402       .  A
C109        H114   1.077       .  S
C110        C111   1.395       .  A
C110        C146   1.472       .  S
C111        C112   1.395       .  A
C111        H115   1.082       .  S
C112        C113   1.401       .  A
C113        H116   1.076       .  S
C117        C118   1.407       .  A
C117        C122   1.412       .  A
C117        C481   1.494       .  S
C118        C119   1.401       .  A
C118        H123   1.084       .  S
C119        C120   1.399       .  A
C120        C121   1.402       .  A
C120        H124   1.085       .  S
C121        C122   1.405       .  A
C121        C166   1.471       .  S
C122        H125   1.083       .  S
C126        C163   1.453       .  S
C126        N144   1.355       .  A
N127        N144   1.329       .  A
N127        N149   1.319       .  A
N127       Co164   2.100       .  S
C128        C166   1.467       .  S
C128        H173   1.081       .  S
C128        N153   1.348       .  A
H129        C170   1.081       .  S
C130        C134   1.452       .  S
C130        H159   1.082       .  S
C130        N154   1.337       .  A
Co131       N149   2.069       .  S
Co131       N139   2.092       .  S
Co131       N171   2.087       .  S
Co131       N147   2.070       .  S
Co131      Cl175   2.427       .  S
N132        C170   1.333       .  A
N132        N139   1.320       .  A
N132       Co133   2.070       .  S
Co133       N136   2.103       .  S
Co133       N153   2.097       .  S
Co133       N140   2.067       .  S
Co133      Cl175   2.474       .  S
C134        N172   1.355       .  A
N135        N142   1.320       .  A
N135        N165   1.322       .  A
N135       Co168   2.086       .  S
N136        N154   1.319       .  A
N136        N172   1.328       .  A
N137        C166   1.344       .  A
N137        N147   1.320       .  A
H138        C163   1.082       .  S
N139        N160   1.326       .  A
N140        N158   1.321       .  A
N140        N145   1.324       .  A
C141        C169   1.462       .  S
C141        N145   1.348       .  A
N142        C157   1.338       .  A
N142       Co164   2.075       .  S
C143        C146   1.460       .  S
C143        H177   1.081       .  S
C143        N171   1.339       .  A
C146        N167   1.349       .  A
N147        N153   1.318       .  A
N148        C174   1.348       .  A
N148        N150   1.318       .  A
N148       Co164   2.093       .  S
N149        C163   1.336       .  A
N150        N178   1.321       .  A
N150       Co168   2.077       .  S
H151        C174   1.081       .  S
H152        C169   1.081       .  S
N154       Co168   2.068       .  S
N155        N167   1.323       .  A
N155        N171   1.321       .  A
N155       Co164   2.074       .  S
C156        C170   1.460       .  S
C156        N160   1.352       .  A
C157        C176   1.462       .  S
C157        H161   1.081       .  S
N158        C169   1.333       .  A
N158       Co168   2.083       .  S
C162        C174   1.465       .  S
C162        N178   1.347       .  A
Co164      Cl175   2.476       .  S
N165        C176   1.349       .  A
Co168      Cl175   2.422       .  S
C179        C180   1.395       .  D
C179        C548   1.499       .  S
C179       C1094   1.556       .  S
C180        C467   1.517       .  S
C180       C1038   1.485       .  S
C181        C182   1.374   1_556  D
C181        C422   1.508       .  S
C181       C1615   1.506   1_455  S
C182        C520   1.494       .  S
C182       C1713   1.497   1_455  S
C183        C184   1.375       .  D
C183        C495   1.493       .  S
C183       C1752   1.500       .  S
C184        C397   1.512       .  S
C184       C1584   1.511       .  S
C185        C186   1.376   1_554  D
C185        C562   1.508       .  S
C185       C1066   1.513       .  S
C186        C383   1.496       .  S
C186        C954   1.502       .  S
C187        C188   1.403       .  A
C187        C192   1.407       .  A
C187        C380   1.490       .  S
C188        C189   1.400       .  A
C188        H193   1.081       .  S
C189        C190   1.397       .  A
C189        C362   1.470       .  S
C190        C191   1.399       .  A
C190        H194   1.082       .  S
C191        C192   1.404       .  A
C191        C241   1.471       .  S
C192        H195   1.083       .  S
C196        C197   1.411       .  A
C196        C201   1.414       .  A
C196        C436   1.499       .  S
C197        C198   1.402       .  A
C197        H202   1.083       .  S
C198        C199   1.397       .  A
C198        C261   1.469       .  S
C199        C200   1.399       .  A
C199        H203   1.085       .  S
C200        C201   1.405       .  A
C200        C312   1.472       .  S
C201        H204   1.083       .  S
C205        C206   1.404       .  A
C205        C210   1.406       .  A
C205        C369   1.487       .  S
C206        C207   1.401       .  A
C206        H211   1.084       .  S
C207        C208   1.398       .  A
C207        C332   1.471       .  S
C208        C209   1.400       .  A
C208        H212   1.082       .  S
C209        C210   1.406       .  A
C209        C277   1.473       .  S
C210        H213   1.082       .  S
C214        C215   1.410       .  A
C214        C219   1.410       .  A
C214        C425   1.496       .  S
C215        C216   1.404       .  A
C215        H220   1.084       .  S
C216        C217   1.402       .  A
C216        C348   1.472       .  S
C217        C218   1.401       .  A
C217        H221   1.085       .  S
C218        C219   1.404       .  A
C218        C291   1.471       .  S
C219        H222   1.084       .  S
C223        C224   1.413       .  A
C223        C228   1.411       .  A
C223        C394   1.500       .  S
C224        C225   1.405       .  A
C224        H229   1.083       .  S
C225        C226   1.398       .  A
C225        C256   1.470       .  S
C226        C227   1.397       .  A
C226        H230   1.085       .  S
C227        C228   1.403       .  A
C227        C352   1.467       .  S
C228        H231   1.083       .  S
C232        C233   1.400       .  A
C232        C237   1.400       .  A
C232        C453   1.488       .  S
C233        C234   1.402       .  A
C233        H238   1.081       .  S
C234        C235   1.403       .  A
C234        C342   1.472       .  S
C235        C236   1.403       .  A
C235        H239   1.083       .  S
C236        C237   1.404       .  A
C236        C281   1.474       .  S
C237        H240   1.080       .  S
C241        C278   1.461       .  S
C241        N259   1.348       .  A
N242        N259   1.323       .  A
N242        N264   1.321       .  A
N242       Co279   2.070       .  S
C243        C281   1.457       .  S
C243        H288   1.081       .  S
C243        N268   1.333       .  A
H244        C285   1.081       .  S
C245        C249   1.461       .  S
C245        H274   1.081       .  S
C245        N269   1.335       .  A
Co246       N264   2.090       .  S
Co246       N254   2.062       .  S
Co246       N286   2.063       .  S
Co246       N262   2.098       .  S
Co246      Cl290   2.423       .  S
N247        C285   1.349       .  A
N247        N254   1.318       .  A
N247       Co248   2.102       .  S
Co248       N251   2.065       .  S
Co248       N268   2.064       .  S
Co248       N255   2.101       .  S
Co248      Cl290   2.476       .  S
C249        C305   1.469       .  S
C249        N287   1.347       .  A
N250        N257   1.318       .  A
N250        N280   1.322       .  A
N250       Co283   2.067       .  S
N251        N269   1.321       .  A
N251        N287   1.322       .  A
N252        C281   1.353       .  A
N252        N262   1.326       .  A
H253        C278   1.081       .  S
N254        N275   1.320       .  A
N255        N273   1.318       .  A
N255        N260   1.329       .  A
C256        C284   1.450       .  S
C256        N260   1.355       .  A
N257        C272   1.347       .  A
N257       Co279   2.098       .  S
C258        C261   1.451       .  S
C258        H292   1.082       .  S
C258        N286   1.335       .  A
C261        N282   1.353       .  A
N262        N268   1.321       .  A
N263        C289   1.338       .  A
N263        N265   1.320       .  A
N263       Co279   2.068       .  S
N264        C278   1.338       .  A
N265        N293   1.323       .  A
N265       Co283   2.095       .  S
H266        C289   1.081       .  S
H267        C284   1.082       .  S
N269       Co283   2.087       .  S
N270        N282   1.328       .  A
N270        N286   1.318       .  A
N270       Co279   2.095       .  S
C271        C285   1.469       .  S
C271        C296   1.471       .  S
C271        N275   1.342       .  A
C272        C291   1.467       .  S
C272        H276   1.082       .  S
N273        C284   1.334       .  A
N273       Co283   2.061       .  S
C277        C289   1.457       .  S
C277        N293   1.352       .  A
Co279      Cl290   2.475       .  S
N280        C291   1.345       .  A
Co283      Cl290   2.420       .  S
C294        C295   1.412       .  A
C294        C299   1.412       .  A
C294        C411   1.498       .  S
C295        C296   1.405       .  A
C295        H300   1.084       .  S
C296        C297   1.401       .  A
C297        C298   1.400       .  A
C297        H301   1.085       .  S
C298        C299   1.404       .  A
C298        C320   1.474       .  S
C299        H302   1.084       .  S
C303        C304   1.406       .  A
C303        C308   1.414       .  A
C303        C464   1.494       .  S
C304        C305   1.399       .  A
C304        H309   1.083       .  S
C305        C306   1.393       .  A
C306        C307   1.397       .  A
C306        H310   1.078       .  S
C307        C308   1.406       .  A
C307        C327   1.477       .  S
C308        H311   1.083       .  S
C312        C349   1.452       .  S
C312        N330   1.355       .  A
N313        N330   1.330       .  A
N313        N335   1.318       .  A
N313      Co2114   2.099   1_545  S
C314        C352   1.462       .  S
C314        H359   1.082       .  S
C314        N339   1.345       .  A
H315        C356   1.081   1_565  S
C316        C320   1.456       .  S
C316        H345   1.082       .  S
C316        N340   1.338       .  A
Co317       N357   2.089       .  S
Co317       N333   2.072       .  S
Co317      N1511   2.066   1_455  S
Co317      N1501   2.090   1_455  S
Co317      Cl949   2.423   1_545  S
N318        C356   1.335       .  A
N318        N325   1.321       .  A
N318      Co2083   2.070   1_545  S
Co319       N326   2.077       .  S
Co319      N2082   2.070   1_455  S
Co319      N1498   2.095   1_455  S
Co319       N927   2.087       .  S
Co319      Cl361   2.476       .  S
C320        N358   1.353       .  A
N321        N328   1.321       .  A
N321        N351   1.323       .  A
N321      Co1530   2.090       .  S
N322        N340   1.318       .  A
N322        N358   1.329       .  A
N322      Co1495   2.095       .  S
N323        C352   1.346       .  A
N323        N333   1.321       .  A
H324        C349   1.082       .  S
N325        N346   1.325       .  A
N325      Co1493   2.090       .  S
N326        N344   1.320       .  A
N326        N331   1.327       .  A
C327        C355   1.461       .  S
C327        N331   1.351       .  A
N328        C343   1.335       .  A
N328      Co1526   2.065       .  S
C329        C332   1.462       .  S
C329        H363   1.081       .  S
C329        N357   1.339       .  A
C332        N353   1.348       .  A
N333        N339   1.318       .  A
N334        C360   1.348       .  A
N334        N336   1.318       .  A
N334       Co350   2.098       .  S
N335        C349   1.334       .  A
N335      Co1493   2.066       .  S
N336        N364   1.321       .  A
N336       Co354   2.070       .  S
H337        C360   1.081       .  S
H338        C355   1.080       .  S
N339       Co907   2.087   1_545  S
N340      Co1530   2.073       .  S
N341        N353   1.321       .  A
N341        N357   1.321       .  A
N341       Co938   2.069   1_545  S
C342        C356   1.458       .  S
C342        N346   1.350       .  A
C343        C362   1.457       .  S
C343        H347   1.081       .  S
N344        C355   1.333       .  A
N344       Co354   2.086       .  S
C348        C360   1.468       .  S
C348        N364   1.345       .  A
Co350      N2077   2.099   1_455  S
Co350      N1504   2.065   1_455  S
Co350       N929   2.069       .  S
Co350      Cl361   2.476       .  S
N351        C362   1.351       .  A
Co354      N1497   2.090   1_455  S
Co354      N1516   2.073   1_455  S
Co354      Cl361   2.420       .  S
Cl361      Co905   2.423       .  S
C365        C366   1.408   1_545  A
C365        C370   1.407       .  A
C365        H372   1.082       .  S
C366        C955   1.418       .  A
C366        C774   1.502       .  S
C367        C954   1.418       .  A
C367        C956   1.396       .  A
C367        N374   1.437       .  S
C368        C369   1.402       .  A
C368        C955   1.396   1_545  A
C368        H373   1.084   1_545  S
C369        C370   1.416       .  A
C370        N371   1.439       .  S
N371        O375   1.263       .  A
N371        O376   1.263       .  A
N374        O377   1.261       .  A
N374        O378   1.263       .  A
C379        C380   1.407       .  A
C379        C384   1.399       .  A
C379        H386   1.082       .  S
C380        C381   1.417       .  A
C381        C382   1.402       .  A
C381        N388   1.438       .  S
C382        C383   1.403       .  A
C382        H387   1.077       .  S
C383        C384   1.412       .  A
C384        N385   1.439       .  S
N385        O389   1.263       .  A
N385        O978   1.263       .  A
N388        O391   1.263       .  A
N388        O392   1.263       .  A
O390        N973   1.263       .  A
C393        C394   1.410       .  A
C393        C398   1.407       .  A
C393        H400   1.083       .  S
C394        C395   1.415       .  A
C395        C396   1.405       .  A
C395        N402   1.440       .  S
C396        C397   1.408       .  A
C396        H401   1.076       .  S
C397        C398   1.414       .  A
C398        N399   1.437   1_455  S
N399        O403   1.263       .  A
N399        O404   1.262       .  A
N402        O405   1.263       .  A
N402        O406   1.263       .  A
C407        C408   1.410       .  A
C407        C412   1.408       .  A
C407        H414   1.079       .  S
C408        C409   1.415       .  A
C408       C1360   1.511       .  S
C409        C410   1.403       .  A
C409       N1592   1.435       .  S
C410        C411   1.407       .  A
C410        H415   1.083       .  S
C411        C412   1.417       .  A
C412        N413   1.440       .  S
N413        O417   1.263       .  A
N413        O418   1.263       .  A
N416       C1585   1.435       .  S
N416        O419   1.262       .  A
N416       O1596   1.262       .  A
O420       N1592   1.262       .  A
C421        C422   1.408       .  A
C421        C426   1.406       .  A
C421        H428   1.080       .  S
C422        C423   1.418       .  A
C423        C424   1.406       .  A
C423        N430   1.440   1_455  S
C424        C425   1.407       .  A
C424        H429   1.083       .  S
C425        C426   1.416       .  A
C426        N427   1.439       .  S
N427        O431   1.263       .  A
N427        O432   1.263       .  A
N430        O433   1.262       .  A
N430       O1610   1.262       .  A
O434       N1606   1.262       .  A
C435        C436   1.408       .  A
C435        C440   1.403       .  A
C435        H442   1.082       .  S
C436        C437   1.419       .  A
C437        C438   1.408       .  A
C437        N444   1.440       .  S
C438        C439   1.408       .  A
C438        H443   1.082       .  S
C439        C440   1.413       .  A
C439       C1357   1.506       .  S
C440       N1617   1.437       .  S
N441       C1616   1.437       .  S
N441        O445   1.262       .  A
N441        O446   1.262       .  A
N444        O447   1.263       .  A
N444        O448   1.263       .  A
C449        C450   1.404   1_545  A
C449        C454   1.396       .  A
C449        H456   1.084       .  S
C450        C451   1.424       .  A
C450        C768   1.485       .  S
C451        C452   1.405   1_565  A
C451        N458   1.448       .  S
C452        C453   1.407       .  A
C452        H457   1.082       .  S
C453        C454   1.415       .  A
C454        N455   1.439       .  S
N455        O459   1.263       .  A
N455        O460   1.263       .  A
N458        O461   1.263       .  A
N458       O1050   1.261       .  A
O462       N1046   1.261       .  A
C463        C464   1.406       .  A
C463        C468   1.401       .  A
C463        H470   1.084       .  S
C464        C465   1.413       .  A
C465        C466   1.403       .  A
C465        N472   1.441       .  S
C466        C467   1.405       .  A
C466        H471   1.072       .  S
C467        C468   1.418       .  A
C468        N469   1.431       .  S
N469        O473   1.263       .  A
N469        O474   1.261       .  A
N472        O475   1.263       .  A
N472        O476   1.263       .  A
C477        C478   1.407   1_545  A
C477        C482   1.399       .  A
C477        H484   1.077       .  S
C478        C479   1.425       .  A
C478        C773   1.513       .  S
C479        C480   1.410   1_565  A
C479        N486   1.438       .  S
C480        C481   1.405       .  A
C480        H485   1.083       .  S
C481        C482   1.414       .  A
C482        N483   1.437       .  S
N483        O487   1.262       .  A
N483        O488   1.263       .  A
N486        O490   1.263   1_554  A
N486       O1077   1.260       .  A
O489       N1074   1.260       .  A
C491        C492   1.414       .  A
C491        C496   1.406       .  A
C491        H498   1.076       .  S
C492        C493   1.426       .  A
C493        C494   1.399       .  A
C493        N500   1.436       .  S
C494        C495   1.397       .  A
C494        H499   1.079       .  S
C495        C496   1.418       .  A
C496        N497   1.448       .  S
N497        O501   1.263       .  A
N497        O502   1.261       .  A
N500        O503   1.263       .  A
N500        O504   1.263       .  A
C505        C506   1.420       .  A
C505        C510   1.414       .  A
C505        H512   1.069       .  S
C506        C507   1.431       .  A
C506        C767   1.556   1_545  S
C507        C508   1.402       .  A
C507       N1102   1.431   1_545  S
C508        C509   1.396       .  A
C508        H513   1.085       .  S
C509        C510   1.409       .  A
C510        N511   1.445       .  S
N511        O515   1.263       .  A
N511        O516   1.263       .  A
N514       C1095   1.431       .  S
N514        O518   1.262       .  A
N514       O1105   1.262       .  A
O517       N1102   1.262   1_545  A
C519        C520   1.403       .  A
C519        C524   1.398       .  A
C519        H526   1.084       .  S
C520        C521   1.415       .  A
C521        C522   1.400       .  A
C521        N528   1.435       .  S
C522        C523   1.409       .  A
C522        H527   1.082       .  S
C523        C524   1.420       .  A
C524        N525   1.430       .  S
N525        O529   1.262       .  A
N525        O530   1.263       .  A
N528        O532   1.258   1_554  A
N528       O1707   1.263       .  A
O531       N1704   1.263       .  A
C533        C534   1.408       .  A
C533        C538   1.396       .  A
C533        H540   1.083       .  S
C534        C535   1.420       .  A
C535        C536   1.408       .  A
C535        N542   1.437       .  S
C536        C537   1.406       .  A
C536        H541   1.083       .  S
C537        C538   1.408       .  A
C537       C1358   1.497       .  S
C538        N539   1.434       .  S
N539        O543   1.262       .  A
N539        O544   1.263       .  A
N542        O545   1.263       .  A
N542        O546   1.263       .  A
C547        C548   1.402       .  A
C547        C552   1.405       .  A
C547        H554   1.084       .  S
C548        C549   1.420       .  A
C549        C550   1.408       .  A
C549        N556   1.451       .  S
C550        C551   1.413       .  A
C550        H555   1.080       .  S
C551        C552   1.425       .  A
C552        N553   1.435       .  S
N553        O557   1.263       .  A
N553        O558   1.263       .  A
N556        O559   1.263       .  A
N556        O560   1.263       .  A
C561        C562   1.401       .  A
C561        C566   1.408       .  A
C561        H568   1.083       .  S
C562        C563   1.408       .  A
C563        C564   1.404       .  A
C563        N570   1.432       .  S
C564        C565   1.416       .  A
C564        H569   1.078       .  S
C565        C566   1.431       .  A
C566        N567   1.433       .  S
N567        O571   1.263       .  A
N567        O572   1.263       .  A
N570        O573   1.263       .  A
N570        O574   1.261       .  A
C575        C576   1.406       .  A
C575        C580   1.410       .  A
C575        H582   1.082       .  S
C576        C577   1.414       .  A
C576       C1359   1.500       .  S
C577        C578   1.392       .  A
C577        N584   1.433       .  S
C578        C579   1.403       .  A
C578        H583   1.083       .  S
C579        C580   1.420       .  A
C580        N581   1.438       .  S
N581        O585   1.263       .  A
N581        O586   1.263       .  A
N584        O587   1.262       .  A
N584       O1764   1.263       .  A
O588       N1760   1.263       .  A
C589        C590   1.407       .  A
C589        C594   1.406       .  A
C589       C1167   1.494       .  S
C590        C591   1.399       .  A
C590        H595   1.081       .  S
C591        C592   1.399       .  A
C591        C764   1.473       .  S
C592        C593   1.400       .  A
C592        H596   1.082       .  S
C593        C594   1.407       .  A
C593        C625   1.473       .  S
C594        H597   1.083       .  S
C598        C599   1.420       .  A
C598        C603   1.422       .  A
C598       C1153   1.527       .  S
C599        C600   1.407       .  A
C599        H604   1.078       .  S
C600        C601   1.397       .  A
C600        C655   1.474       .  S
C601        C602   1.394       .  A
C601        H605   1.085       .  S
C602        C603   1.403       .  A
C602        C722   1.473       .  S
C603        H606   1.079       .  S
C607        C608   1.417       .  A
C607        C612   1.415       .  A
C607       C1139   1.515       .  S
C608        C609   1.408       .  A
C608        H613   1.081       .  S
C609        C610   1.399       .  A
C609        C750   1.473       .  S
C610        C611   1.396       .  A
C610        H614   1.085       .  S
C611        C612   1.400       .  A
C611        C675   1.468       .  S
C612        H615   1.081       .  S
C616        C617   1.402       .  A
C616        C621   1.405       .  A
C616       C1122   1.497       .  S
C617        C618   1.400       .  A
C617        H622   1.080       .  S
C618        C619   1.402       .  A
C618        C744   1.476       .  S
C619        C620   1.405       .  A
C619        H623   1.083       .  S
C620        C621   1.410       .  A
C620        C665   1.478       .  S
C621        H624   1.081       .  S
C625        C662   1.465       .  S
C625       N1819   1.346       .  A
N626        N643   1.322       .  A
N626       N1824   1.322       .  A
N626       Co663   2.067   1_655  S
C627        C665   1.457       .  S
C627       H1848   1.081       .  S
C627       N1828   1.336       .  A
H628       C1845   1.081       .  S
C629        C633   1.457       .  S
C629        H658   1.080       .  S
C629        N653   1.333       .  A
Co630       N648   2.099       .  S
Co630       N638   2.074       .  S
Co630     Cl1850   2.422       .  S
N631       C1845   1.349       .  A
N631       N1814   1.317       .  A
N631       Co632   2.093   1_655  S
Co632       N635   2.073       .  S
Co632      Cl674   2.477       .  S
C633        C680   1.471       .  S
C633        N671   1.350       .  A
N634        N641   1.317       .  A
N634        N664   1.321       .  A
N634       Co667   2.063       .  S
N635        N653   1.320       .  A
N635        N671   1.325       .  A
N636        C665   1.355       .  A
N636        N646   1.327       .  A
H637        C662   1.081       .  S
N638       N1807   1.317       .  A
N638        N659   1.320       .  A
N639        N657   1.318       .  A
N639        N644   1.327       .  A
C640        C668   1.455       .  S
C640        C707   1.469       .  S
C640        N644   1.353       .  A
N641        C656   1.346       .  A
N641       Co663   2.098       .  S
C642        C645   1.450       .  S
C642        H676   1.082       .  S
C642        N670   1.335       .  A
N643       C1801   1.346       .  A
C645        C689   1.475       .  S
C645        N666   1.356       .  A
N646       N1828   1.321       .  A
N647        C673   1.338       .  A
N647        N649   1.321       .  A
N648        C662   1.341       .  A
N648       N1802   1.322       .  A
N649        N677   1.322       .  A
H650        C673   1.081       .  S
H651        C668   1.082       .  S
N652       C1803   1.336       .  A
N652       N1822   1.321       .  A
N653       Co667   2.079       .  S
N654       N1842   1.331       .  A
N654       N1846   1.320       .  A
C655        C669   1.466       .  S
C655        N659   1.346       .  A
C656        C675   1.467       .  S
C656        H660   1.082       .  S
N657        C668   1.337       .  A
C661        C673   1.461       .  S
C661        C700   1.472       .  S
C661        N677   1.350       .  A
Co663      Cl674   2.475       .  S
N664        C675   1.343       .  A
N666       N1830   1.331       .  A
Co667      Cl674   2.423       .  S
C669       H1804   1.081       .  S
C669       N1807   1.349       .  A
N670       N1830   1.320       .  A
H672       C1803   1.081   1_455  S
Cl674     Co1806   2.422   1_455  S
C678        C679   1.415       .  A
C678        C683   1.412       .  A
C678       C1111   1.502       .  S
C679        C680   1.398       .  A
C679        H684   1.082       .  S
C680        C681   1.392       .  A
C681        C682   1.392       .  A
C681        H685   1.078       .  S
C682        C683   1.403       .  A
C682        C729   1.471       .  S
C683        H686   1.079       .  S
C687        C688   1.410       .  A
C687        C692   1.406       .  A
C687       C1097   1.485       .  S
C688        C689   1.407       .  A
C688        H693   1.084       .  S
C689        C690   1.402       .  A
C690        C691   1.401       .  A
C690        H694   1.085       .  S
C691        C692   1.402       .  A
C691        C714   1.473       .  S
C692        H695   1.084       .  S
C696        C697   1.417       .  A
C696        C701   1.412       .  A
C696       C1080   1.516       .  S
C697        C698   1.402       .  A
C697        H702   1.077       .  S
C698        C699   1.395       .  A
C698        C734   1.472       .  S
C699        C700   1.395       .  A
C699        H703   1.082       .  S
C700        C701   1.401       .  A
C701        H704   1.076       .  S
C705        C706   1.407       .  A
C705        C710   1.412       .  A
C705       C1069   1.494       .  S
C706        C707   1.401       .  A
C706        H711   1.084       .  S
C707        C708   1.399       .  A
C708        C709   1.402       .  A
C708        H712   1.085       .  S
C709        C710   1.405       .  A
C709        C754   1.471       .  S
C710        H713   1.083       .  S
C714        C751   1.453       .  S
C714        N732   1.355       .  A
N715        N732   1.329       .  A
N715        N737   1.319       .  A
N715       Co752   2.100       .  S
C716        C754   1.467       .  S
C716        H761   1.081       .  S
C716        N741   1.348       .  A
H717        C758   1.081       .  S
C718        C722   1.452       .  S
C718        H747   1.082       .  S
C718        N742   1.337       .  A
Co719       N737   2.069       .  S
Co719       N727   2.092       .  S
Co719       N759   2.087       .  S
Co719       N735   2.070       .  S
Co719      Cl763   2.427       .  S
N720        C758   1.333       .  A
N720        N727   1.320       .  A
N720       Co721   2.070       .  S
Co721       N724   2.103       .  S
Co721       N741   2.097       .  S
Co721       N728   2.067       .  S
Co721      Cl763   2.474       .  S
C722        N760   1.355       .  A
N723        N730   1.320       .  A
N723        N753   1.322       .  A
N723       Co756   2.086       .  S
N724        N742   1.319       .  A
N724        N760   1.328       .  A
N725        C754   1.344       .  A
N725        N735   1.320       .  A
H726        C751   1.082       .  S
N727        N748   1.326       .  A
N728        N746   1.321       .  A
N728        N733   1.324       .  A
C729        C757   1.462       .  S
C729        N733   1.348       .  A
N730        C745   1.338       .  A
N730       Co752   2.075       .  S
C731        C734   1.460       .  S
C731        H765   1.081       .  S
C731        N759   1.339       .  A
C734        N755   1.349       .  A
N735        N741   1.318       .  A
N736        C762   1.348       .  A
N736        N738   1.318       .  A
N736       Co752   2.093       .  S
N737        C751   1.336       .  A
N738        N766   1.321       .  A
N738       Co756   2.077       .  S
H739        C762   1.081       .  S
H740        C757   1.081       .  S
N742       Co756   2.068       .  S
N743        N755   1.323       .  A
N743        N759   1.321       .  A
N743       Co752   2.074       .  S
C744        C758   1.460       .  S
C744        N748   1.352       .  A
C745        C764   1.462       .  S
C745        H749   1.081       .  S
N746        C757   1.333       .  A
N746       Co756   2.083       .  S
C750        C762   1.465       .  S
C750        N766   1.347       .  A
Co752      Cl763   2.476       .  S
N753        C764   1.349       .  A
Co756      Cl763   2.422       .  S
C767        C768   1.395       .  D
C767       C1136   1.499       .  S
C768       C1055   1.517       .  S
C769        C770   1.374   1_556  D
C769       C1010   1.508       .  S
C769       C2203   1.506   1_455  S
C770       C1108   1.494       .  S
C770       C2301   1.497   1_455  S
C771        C772   1.375       .  D
C771       C1083   1.493       .  S
C771       C2340   1.500       .  S
C772        C985   1.512       .  S
C772       C2172   1.511       .  S
C773        C774   1.376   1_554  D
C773       C1150   1.508       .  S
C774        C971   1.496       .  S
C775        C776   1.403       .  A
C775        C780   1.407       .  A
C775        C968   1.490       .  S
C776        C777   1.400       .  A
C776        H781   1.081       .  S
C777        C778   1.397       .  A
C777        C950   1.470       .  S
C778        C779   1.399       .  A
C778        H782   1.082       .  S
C779        C780   1.404       .  A
C779        C829   1.471       .  S
C780        H783   1.083       .  S
C784        C785   1.411       .  A
C784        C789   1.414       .  A
C784       C1024   1.499       .  S
C785        C786   1.402       .  A
C785        H790   1.083       .  S
C786        C787   1.397       .  A
C786        C849   1.469       .  S
C787        C788   1.399       .  A
C787        H791   1.085       .  S
C788        C789   1.405       .  A
C788        C900   1.472       .  S
C789        H792   1.083       .  S
C793        C794   1.404       .  A
C793        C798   1.406       .  A
C793        C957   1.487       .  S
C794        C795   1.401       .  A
C794        H799   1.084       .  S
C795        C796   1.398       .  A
C795        C920   1.471       .  S
C796        C797   1.400       .  A
C796        H800   1.082       .  S
C797        C798   1.406       .  A
C797        C865   1.473       .  S
C798        H801   1.082       .  S
C802        C803   1.410       .  A
C802        C807   1.410       .  A
C802       C1013   1.496       .  S
C803        C804   1.404       .  A
C803        H808   1.084       .  S
C804        C805   1.402       .  A
C804        C936   1.472       .  S
C805        C806   1.401       .  A
C805        H809   1.085       .  S
C806        C807   1.404       .  A
C806        C879   1.471       .  S
C807        H810   1.084       .  S
C811        C812   1.413       .  A
C811        C816   1.411       .  A
C811        C982   1.500       .  S
C812        C813   1.405       .  A
C812        H817   1.083       .  S
C813        C814   1.398       .  A
C813        C844   1.470       .  S
C814        C815   1.397       .  A
C814        H818   1.085       .  S
C815        C816   1.403       .  A
C815        C940   1.467       .  S
C816        H819   1.083       .  S
C820        C821   1.400       .  A
C820        C825   1.400       .  A
C820       C1041   1.488       .  S
C821        C822   1.402       .  A
C821        H826   1.081       .  S
C822        C823   1.403       .  A
C822        C930   1.472       .  S
C823        C824   1.403       .  A
C823        H827   1.083       .  S
C824        C825   1.404       .  A
C824        C869   1.474       .  S
C825        H828   1.080       .  S
C829        C866   1.461       .  S
C829        N847   1.348       .  A
N830        N847   1.323       .  A
N830        N852   1.321       .  A
N830       Co867   2.070       .  S
C831        C869   1.457       .  S
C831        H876   1.081       .  S
C831        N856   1.333       .  A
H832        C873   1.081       .  S
C833        C837   1.461       .  S
C833        H862   1.081       .  S
C833        N857   1.335       .  A
Co834       N852   2.090       .  S
Co834       N842   2.062       .  S
Co834       N874   2.063       .  S
Co834       N850   2.098       .  S
Co834      Cl878   2.423       .  S
N835        C873   1.349       .  A
N835        N842   1.318       .  A
N835       Co836   2.102       .  S
Co836       N839   2.065       .  S
Co836       N856   2.064       .  S
Co836       N843   2.101       .  S
Co836      Cl878   2.476       .  S
C837        C893   1.469       .  S
C837        N875   1.347       .  A
N838        N845   1.318       .  A
N838        N868   1.322       .  A
N838       Co871   2.067       .  S
N839        N857   1.321       .  A
N839        N875   1.322       .  A
N840        C869   1.353       .  A
N840        N850   1.326       .  A
H841        C866   1.081       .  S
N842        N863   1.320       .  A
N843        N861   1.318       .  A
N843        N848   1.329       .  A
C844        C872   1.450       .  S
C844        N848   1.355       .  A
N845        C860   1.347       .  A
N845       Co867   2.098       .  S
C846        C849   1.451       .  S
C846        H880   1.082       .  S
C846        N874   1.335       .  A
C849        N870   1.353       .  A
N850        N856   1.321       .  A
N851        C877   1.338       .  A
N851        N853   1.320       .  A
N851       Co867   2.068       .  S
N852        C866   1.338       .  A
N853        N881   1.323       .  A
N853       Co871   2.095       .  S
H854        C877   1.081       .  S
H855        C872   1.082       .  S
N857       Co871   2.087       .  S
N858        N870   1.328       .  A
N858        N874   1.318       .  A
N858       Co867   2.095       .  S
C859        C873   1.469       .  S
C859        C884   1.471       .  S
C859        N863   1.342       .  A
C860        C879   1.467       .  S
C860        H864   1.082       .  S
N861        C872   1.334       .  A
N861       Co871   2.061       .  S
C865        C877   1.457       .  S
C865        N881   1.352       .  A
Co867      Cl878   2.475       .  S
N868        C879   1.345       .  A
Co871      Cl878   2.420       .  S
C882        C883   1.412       .  A
C882        C887   1.412       .  A
C882        C999   1.498       .  S
C883        C884   1.405       .  A
C883        H888   1.084       .  S
C884        C885   1.401       .  A
C885        C886   1.400       .  A
C885        H889   1.085       .  S
C886        C887   1.404       .  A
C886        C908   1.474       .  S
C887        H890   1.084       .  S
C891        C892   1.406       .  A
C891        C896   1.414       .  A
C891       C1052   1.494       .  S
C892        C893   1.399       .  A
C892        H897   1.083       .  S
C893        C894   1.393       .  A
C894        C895   1.397       .  A
C894        H898   1.078       .  S
C895        C896   1.406       .  A
C895        C915   1.477       .  S
C896        H899   1.083       .  S
C900        C937   1.452       .  S
C900        N918   1.355       .  A
N901        N918   1.330       .  A
N901        N923   1.318       .  A
N901      Co1526   2.099       .  S
C902        C940   1.462       .  S
C902        H947   1.082       .  S
C902        N927   1.345       .  A
H903        C944   1.081       .  S
C904        C908   1.456       .  S
C904        H933   1.082       .  S
C904        N928   1.338       .  A
Co905      N2099   2.066   1_455  S
Co905      N2089   2.090   1_455  S
Co905       N945   2.089       .  S
Co905       N921   2.072       .  S
N906        C944   1.335       .  A
N906        N913   1.321       .  A
N906      Co1495   2.070       .  S
Co907      N1494   2.070   1_465  S
Co907      N2086   2.095   1_455  S
Co907       N914   2.077       .  S
Co907      Cl949   2.476       .  S
C908        N946   1.353       .  A
N909        N916   1.321       .  A
N909        N939   1.323       .  A
N909      Co2118   2.090       .  S
N910        N928   1.318       .  A
N910        N946   1.329       .  A
N910      Co2083   2.095       .  S
N911        C940   1.346       .  A
N911        N921   1.321       .  A
H912        C937   1.082       .  S
N913        N934   1.325       .  A
N913      Co2081   2.090       .  S
N914        N932   1.320       .  A
N914        N919   1.327       .  A
C915        C943   1.461       .  S
C915        N919   1.351       .  A
N916        C931   1.335       .  A
N916      Co2114   2.065       .  S
C917        C920   1.462       .  S
C917        H951   1.081       .  S
C917        N945   1.339       .  A
C920        N941   1.348       .  A
N921        N927   1.318       .  A
N922        C948   1.348       .  A
N922        N924   1.318       .  A
N922       Co938   2.098       .  S
N923        C937   1.334       .  A
N923      Co2081   2.066       .  S
N924        N952   1.321       .  A
N924       Co942   2.070       .  S
H925        C948   1.081       .  S
H926        C943   1.080       .  S
N928      Co2118   2.073       .  S
N929        N941   1.321       .  A
N929        N945   1.321       .  A
C930        C944   1.458       .  S
C930        N934   1.350       .  A
C931        C950   1.457       .  S
C931        H935   1.081       .  S
N932        C943   1.333       .  A
N932       Co942   2.086       .  S
C936        C948   1.468       .  S
C936        N952   1.345       .  A
Co938      N1489   2.099   1_465  S
Co938      N2092   2.065   1_455  S
Co938      Cl949   2.476       .  S
N939        C950   1.351       .  A
Co942      N2085   2.090   1_455  S
Co942      N2104   2.073   1_455  S
Co942      Cl949   2.420       .  S
C953        C954   1.408       .  A
C953        C958   1.407       .  A
C953        H960   1.082       .  S
C955        N962   1.437       .  S
C956        C957   1.402       .  A
C956        H961   1.084       .  S
C957        C958   1.416       .  A
C958        N959   1.439       .  S
N959        O963   1.263       .  A
N959        O964   1.263       .  A
N962        O965   1.261       .  A
N962        O966   1.263       .  A
C967        C968   1.407       .  A
C967        C972   1.399       .  A
C967        H974   1.082       .  S
C968        C969   1.417       .  A
C969        C970   1.402       .  A
C969        N976   1.438       .  S
C970        C971   1.403       .  A
C970        H975   1.077       .  S
C971        C972   1.412       .  A
C972        N973   1.439   1_565  S
N973        O977   1.263       .  A
N976        O979   1.263       .  A
N976        O980   1.263       .  A
C981        C982   1.410       .  A
C981        C986   1.407       .  A
C981        H988   1.083       .  S
C982        C983   1.415       .  A
C983        C984   1.405       .  A
C983        N990   1.440       .  S
C984        C985   1.408       .  A
C984        H989   1.076       .  S
C985        C986   1.414       .  A
C986        N987   1.437   1_455  S
N987        O991   1.263       .  A
N987        O992   1.262       .  A
N990        O993   1.263       .  A
N990        O994   1.263       .  A
C995        C996   1.410       .  A
C995       C1000   1.408       .  A
C995       H1002   1.079       .  S
C996        C997   1.415       .  A
C996       C1948   1.511       .  S
C997        C998   1.403       .  A
C997       N2180   1.435       .  S
C998        C999   1.407       .  A
C998       H1003   1.083       .  S
C999       C1000   1.417       .  A
C1000      N1001   1.440       .  S
N1001      O1005   1.263       .  A
N1001      O1006   1.263       .  A
N1004      C2173   1.435       .  S
N1004      O1007   1.262       .  A
N1004      O2184   1.262       .  A
O1008      N2180   1.262       .  A
C1009      C1010   1.408       .  A
C1009      C1014   1.406       .  A
C1009      H1016   1.080       .  S
C1010      C1011   1.418       .  A
C1011      C1012   1.406       .  A
C1011      N1018   1.440   1_455  S
C1012      C1013   1.407       .  A
C1012      H1017   1.083       .  S
C1013      C1014   1.416       .  A
C1014      N1015   1.439       .  S
N1015      O1019   1.263       .  A
N1015      O1020   1.263       .  A
N1018      O1021   1.262       .  A
N1018      O2198   1.262       .  A
O1022      N2194   1.262       .  A
C1023      C1024   1.408       .  A
C1023      C1028   1.403       .  A
C1023      H1030   1.082       .  S
C1024      C1025   1.419       .  A
C1025      C1026   1.408       .  A
C1025      N1032   1.440       .  S
C1026      C1027   1.408       .  A
C1026      H1031   1.082       .  S
C1027      C1028   1.413       .  A
C1027      C1945   1.506       .  S
C1028      N2205   1.437       .  S
N1029      C2204   1.437       .  S
N1029      O1033   1.262       .  A
N1029      O1034   1.262       .  A
N1032      O1035   1.263       .  A
N1032      O1036   1.263       .  A
C1037      C1038   1.404       .  A
C1037      C1042   1.396       .  A
C1037      H1044   1.084       .  S
C1038      C1039   1.424       .  A
C1039      C1040   1.405       .  A
C1039      N1046   1.448       .  S
C1040      C1041   1.407       .  A
C1040      H1045   1.082       .  S
C1041      C1042   1.415       .  A
C1042      N1043   1.439       .  S
N1043      O1047   1.263       .  A
N1043      O1048   1.263       .  A
N1046      O1049   1.263       .  A
C1051      C1052   1.406       .  A
C1051      C1056   1.401       .  A
C1051      H1058   1.083       .  S
C1052      C1053   1.413       .  A
C1053      C1054   1.403       .  A
C1053      N1060   1.441       .  S
C1054      C1055   1.405       .  A
C1054      H1059   1.070       .  S
C1055      C1056   1.418       .  A
C1056      N1057   1.431       .  S
N1057      O1061   1.263       .  A
N1057      O1062   1.261       .  A
N1060      O1063   1.263       .  A
N1060      O1064   1.263       .  A
C1065      C1066   1.407       .  A
C1065      C1070   1.399       .  A
C1065      H1072   1.077       .  S
C1066      C1067   1.425       .  A
C1067      C1068   1.410       .  A
C1067      N1074   1.438       .  S
C1068      C1069   1.405       .  A
C1068      H1073   1.083       .  S
C1069      C1070   1.414       .  A
C1070      N1071   1.437       .  S
N1071      O1075   1.262       .  A
N1071      O1076   1.263       .  A
N1074      O1078   1.263   1_554  A
C1079      C1080   1.414       .  A
C1079      C1084   1.406       .  A
C1079      H1086   1.076       .  S
C1080      C1081   1.426       .  A
C1081      C1082   1.399       .  A
C1081      N1088   1.436       .  S
C1082      C1083   1.397       .  A
C1082      H1087   1.079       .  S
C1083      C1084   1.418       .  A
C1084      N1085   1.448       .  S
N1085      O1089   1.263       .  A
N1085      O1090   1.261       .  A
N1088      O1091   1.263       .  A
N1088      O1092   1.263       .  A
C1093      C1094   1.420       .  A
C1093      C1098   1.414       .  A
C1093      H1100   1.069       .  S
C1094      C1095   1.431       .  A
C1095      C1096   1.402       .  A
C1096      C1097   1.396       .  A
C1096      H1101   1.085       .  S
C1097      C1098   1.409       .  A
C1098      N1099   1.445       .  S
N1099      O1103   1.263       .  A
N1099      O1104   1.263       .  A
N1102      O1106   1.262       .  A
C1107      C1108   1.403       .  A
C1107      C1112   1.398       .  A
C1107      H1114   1.084       .  S
C1108      C1109   1.415       .  A
C1109      C1110   1.400       .  A
C1109      N1116   1.435       .  S
C1110      C1111   1.409       .  A
C1110      H1115   1.082       .  S
C1111      C1112   1.420       .  A
C1112      N1113   1.430       .  S
N1113      O1117   1.262       .  A
N1113      O1118   1.263       .  A
N1116      O2295   1.263       .  A
N1116      O1120   1.258   1_554  A
O1119      N2292   1.263       .  A
C1121      C1122   1.408       .  A
C1121      C1126   1.396       .  A
C1121      H1128   1.083       .  S
C1122      C1123   1.420       .  A
C1123      C1124   1.408       .  A
C1123      N1130   1.437       .  S
C1124      C1125   1.406       .  A
C1124      H1129   1.083       .  S
C1125      C1126   1.408       .  A
C1125      C1946   1.497       .  S
C1126      N1127   1.434       .  S
N1127      O1131   1.262       .  A
N1127      O1132   1.263       .  A
N1130      O1133   1.263       .  A
N1130      O1134   1.263       .  A
C1135      C1136   1.402       .  A
C1135      C1140   1.405       .  A
C1135      H1142   1.084       .  S
C1136      C1137   1.420       .  A
C1137      C1138   1.408       .  A
C1137      N1144   1.451       .  S
C1138      C1139   1.413       .  A
C1138      H1143   1.080       .  S
C1139      C1140   1.425       .  A
C1140      N1141   1.435       .  S
N1141      O1145   1.263       .  A
N1141      O1146   1.263       .  A
N1144      O1147   1.263   1_565  A
N1144      O1148   1.263       .  A
C1149      C1150   1.401       .  A
C1149      C1154   1.408       .  A
C1149      H1156   1.083       .  S
C1150      C1151   1.408       .  A
C1151      C1152   1.404       .  A
C1151      N1158   1.432       .  S
C1152      C1153   1.416       .  A
C1152      H1157   1.078       .  S
C1153      C1154   1.431       .  A
C1154      N1155   1.433       .  S
N1155      O1159   1.263       .  A
N1155      O1160   1.263       .  A
N1158      O1161   1.263       .  A
N1158      O1162   1.261       .  A
C1163      C1164   1.406       .  A
C1163      C1168   1.410       .  A
C1163      H1170   1.082       .  S
C1164      C1165   1.414       .  A
C1164      C1947   1.500       .  S
C1165      C1166   1.392       .  A
C1165      N1172   1.433       .  S
C1166      C1167   1.403       .  A
C1166      H1171   1.083       .  S
C1167      C1168   1.420       .  A
C1168      N1169   1.438       .  S
N1169      O1173   1.263       .  A
N1169      O1174   1.263       .  A
N1172      O1175   1.262       .  A
N1172      O2352   1.263       .  A
O1176      N2348   1.263       .  A
C1177      C1178   1.407       .  A
C1177      C1182   1.406       .  A
C1177      C1755   1.494       .  S
C1178      C1179   1.399       .  A
C1178      H1183   1.081       .  S
C1179      C1180   1.399       .  A
C1179      C1352   1.473       .  S
C1180      C1181   1.400       .  A
C1180      H1184   1.082       .  S
C1181      C1182   1.407       .  A
C1181      C1213   1.473       .  S
C1182      H1185   1.083       .  S
C1186      C1187   1.420       .  A
C1186      C1191   1.422       .  A
C1186      C1741   1.527       .  S
C1187      C1188   1.407       .  A
C1187      H1192   1.078       .  S
C1188      C1189   1.397       .  A
C1188      C1243   1.474       .  S
C1189      C1190   1.394       .  A
C1189      H1193   1.085       .  S
C1190      C1191   1.403       .  A
C1190      C1310   1.473       .  S
C1191      H1194   1.079       .  S
C1195      C1196   1.417       .  A
C1195      C1200   1.415       .  A
C1195      C1727   1.515       .  S
C1196      C1197   1.408       .  A
C1196      H1201   1.081       .  S
C1197      C1198   1.399       .  A
C1197      C1338   1.473       .  S
C1198      C1199   1.396       .  A
C1198      H1202   1.085       .  S
C1199      C1200   1.400       .  A
C1199      C1263   1.468       .  S
C1200      H1203   1.081       .  S
C1204      C1205   1.402       .  A
C1204      C1209   1.405       .  A
C1204      C1710   1.497       .  S
C1205      C1206   1.400       .  A
C1205      H1210   1.080       .  S
C1206      C1207   1.402       .  A
C1206      C1332   1.476       .  S
C1207      C1208   1.405       .  A
C1207      H1211   1.083       .  S
C1208      C1209   1.410       .  A
C1208      C1253   1.478       .  S
C1209      H1212   1.081       .  S
C1213      C1250   1.465       .  S
N1214      N1231   1.322       .  A
N1214     Co1251   2.067       .  S
C1215      C1253   1.457       .  S
C1217      C1221   1.457       .  S
C1217      H1246   1.080       .  S
C1217      N1241   1.333       .  A
Co1218     N1236   2.099       .  S
Co1218     N1226   2.074       .  S
Co1218     N1846   2.067       .  S
Co1218     N1822   2.106       .  S
N1219     Co1220   2.093       .  S
Co1220     N1223   2.073       .  S
Co1220     N1828   2.068       .  S
Co1220     N1815   2.093       .  S
Co1220    Cl1262   2.477       .  S
C1221      C1268   1.471       .  S
C1221      N1259   1.350       .  A
N1222      N1229   1.317       .  A
N1222      N1252   1.321       .  A
N1222     Co1255   2.063       .  S
N1223      N1241   1.320       .  A
N1223      N1259   1.325       .  A
N1224      C1253   1.355       .  A
N1224      N1234   1.327       .  A
H1225      C1250   1.081       .  S
N1226      N1247   1.320       .  A
N1227      N1245   1.318       .  A
N1227      N1232   1.327       .  A
N1227     Co1808   2.093   1_545  S
C1228      C1256   1.455       .  S
C1228      C1295   1.469       .  S
C1228      N1232   1.353       .  A
N1229      C1244   1.346       .  A
N1229     Co1251   2.098       .  S
C1230      C1233   1.450       .  S
C1230      H1264   1.082       .  S
C1230      N1258   1.335       .  A
C1233      C1277   1.475       .  S
C1233      N1254   1.356       .  A
N1234     Co1806   2.106   1_545  S
N1235      C1261   1.338       .  A
N1235      N1237   1.321       .  A
N1235     Co1839   2.075   1_545  S
N1236      C1250   1.341       .  A
N1237      N1265   1.322       .  A
N1237     Co1843   2.087   1_545  S
H1238      C1261   1.081       .  S
H1239      C1256   1.082       .  S
N1240     Co1808   2.068   1_545  S
N1241     Co1255   2.079       .  S
N1242     Co1839   2.106   1_545  S
C1243      C1257   1.466       .  S
C1243      N1247   1.346       .  A
C1244      C1263   1.467       .  S
C1244      H1248   1.082       .  S
N1245      C1256   1.337       .  A
N1245     Co1843   2.068   1_545  S
C1249      C1261   1.461       .  S
C1249      C1288   1.472       .  S
C1249      N1265   1.350       .  A
Co1251     N1823   2.075       .  S
Co1251     N1830   2.106       .  S
Co1251    Cl1262   2.475       .  S
N1252      C1263   1.343       .  A
Co1255     N1825   2.087       .  S
Co1255     N1833   2.068       .  S
Co1255    Cl1262   2.423       .  S
N1258     Co1806   2.067   1_545  S
C1266      C1267   1.415       .  A
C1266      C1271   1.412       .  A
C1266      C1699   1.502       .  S
C1267      C1268   1.398       .  A
C1267      H1272   1.082       .  S
C1268      C1269   1.392       .  A
C1269      C1270   1.392       .  A
C1269      H1273   1.078       .  S
C1270      C1271   1.403       .  A
C1270      C1317   1.471       .  S
C1271      H1274   1.079       .  S
C1275      C1276   1.410       .  A
C1275      C1280   1.406       .  A
C1275      C1685   1.485       .  S
C1276      C1277   1.407       .  A
C1276      H1281   1.084       .  S
C1277      C1278   1.402       .  A
C1278      C1279   1.401       .  A
C1278      H1282   1.085       .  S
C1279      C1280   1.402       .  A
C1279      C1302   1.473       .  S
C1280      H1283   1.084       .  S
C1284      C1285   1.417       .  A
C1284      C1289   1.412       .  A
C1284      C1668   1.516       .  S
C1285      C1286   1.402       .  A
C1285      H1290   1.077       .  S
C1286      C1287   1.395       .  A
C1286      C1322   1.472       .  S
C1287      C1288   1.395       .  A
C1287      H1291   1.082       .  S
C1288      C1289   1.401       .  A
C1289      H1292   1.076       .  S
C1293      C1294   1.407       .  A
C1293      C1298   1.412       .  A
C1293      C1657   1.494       .  S
C1294      C1295   1.401       .  A
C1294      H1299   1.084       .  S
C1295      C1296   1.399       .  A
C1296      C1297   1.402       .  A
C1296      H1300   1.085       .  S
C1297      C1298   1.405       .  A
C1297      C1342   1.471       .  S
C1298      H1301   1.083       .  S
C1302      C1339   1.453       .  S
C1302      N1320   1.355       .  A
N1303      N1320   1.329       .  A
N1303      N1325   1.319       .  A
N1303     Co1340   2.100       .  S
C1304      C1342   1.467       .  S
C1304      H1349   1.081       .  S
C1304      N1329   1.348       .  A
H1305      C1346   1.081       .  S
C1306      C1310   1.452       .  S
C1306      H1335   1.082       .  S
C1306      N1330   1.337       .  A
Co1307     N1325   2.069       .  S
Co1307     N1315   2.092       .  S
Co1307     N1347   2.087       .  S
Co1307     N1323   2.070       .  S
Co1307    Cl1351   2.427       .  S
N1308      C1346   1.333       .  A
N1308      N1315   1.320       .  A
N1308     Co1309   2.070       .  S
Co1309     N1312   2.103       .  S
Co1309     N1329   2.097       .  S
Co1309     N1316   2.067       .  S
Co1309    Cl1351   2.474       .  S
C1310      N1348   1.355       .  A
N1311      N1318   1.320       .  A
N1311      N1341   1.322       .  A
N1311     Co1344   2.086       .  S
N1312      N1330   1.319       .  A
N1312      N1348   1.328       .  A
N1313      C1342   1.344       .  A
N1313      N1323   1.320       .  A
H1314      C1339   1.082       .  S
N1315      N1336   1.326       .  A
N1316      N1334   1.321       .  A
N1316      N1321   1.324       .  A
C1317      C1345   1.462       .  S
C1317      N1321   1.348       .  A
N1318      C1333   1.338       .  A
N1318     Co1340   2.075       .  S
C1319      C1322   1.460       .  S
C1319      H1353   1.081       .  S
C1319      N1347   1.339       .  A
C1322      N1343   1.349       .  A
N1323      N1329   1.318       .  A
N1324      C1350   1.348       .  A
N1324      N1326   1.318       .  A
N1324     Co1340   2.093       .  S
N1325      C1339   1.336       .  A
N1326      N1354   1.321       .  A
N1326     Co1344   2.077       .  S
H1327      C1350   1.081       .  S
H1328      C1345   1.081       .  S
N1330     Co1344   2.068       .  S
N1331      N1343   1.323       .  A
N1331      N1347   1.321       .  A
N1331     Co1340   2.074       .  S
C1332      C1346   1.460       .  S
C1332      N1336   1.352       .  A
C1333      C1352   1.462       .  S
C1333      H1337   1.081       .  S
N1334      C1345   1.333       .  A
N1334     Co1344   2.083       .  S
C1338      C1350   1.465       .  S
C1338      N1354   1.347       .  A
Co1340    Cl1351   2.476       .  S
N1341      C1352   1.349       .  A
Co1344    Cl1351   2.422       .  S
C1355      C1356   1.395       .  D
C1355      C2270   1.556       .  S
C1355      C1724   1.499       .  S
C1356      C2214   1.485       .  S
C1356      C1643   1.517       .  S
C1357      C1358   1.374   1_556  D
C1357      C1598   1.508       .  S
C1358      C1696   1.494       .  S
C1359      C1360   1.375       .  D
C1359      C1671   1.493       .  S
C1360      C1573   1.512       .  S
C1361      C1362   1.376   1_554  D
C1361      C2242   1.513       .  S
C1361      C1738   1.508       .  S
C1362      C2130   1.502       .  S
C1362      C1559   1.496       .  S
C1363      C1364   1.403       .  A
C1363      C1368   1.407       .  A
C1363      C1556   1.490       .  S
C1364      C1365   1.400       .  A
C1364      H1369   1.081       .  S
C1365      C1366   1.397       .  A
C1365      C1538   1.470       .  S
C1366      C1367   1.399       .  A
C1366      H1370   1.082       .  S
C1367      C1368   1.404       .  A
C1367      C1417   1.471       .  S
C1368      H1371   1.083       .  S
C1372      C1373   1.411       .  A
C1372      C1377   1.414       .  A
C1372      C1612   1.499       .  S
C1373      C1374   1.402       .  A
C1373      H1378   1.083       .  S
C1374      C1375   1.397       .  A
C1374      C1437   1.469       .  S
C1375      C1376   1.399       .  A
C1375      H1379   1.085       .  S
C1376      C1377   1.405       .  A
C1376      C1488   1.472       .  S
C1377      H1380   1.083       .  S
C1381      C1382   1.404       .  A
C1381      C1386   1.406       .  A
C1381      C1545   1.487       .  S
C1382      C1383   1.401       .  A
C1382      H1387   1.084       .  S
C1383      C1384   1.398       .  A
C1383      C1508   1.471       .  S
C1384      C1385   1.400       .  A
C1384      H1388   1.082       .  S
C1385      C1386   1.406       .  A
C1385      C1453   1.473       .  S
C1386      H1389   1.082       .  S
C1390      C1391   1.410       .  A
C1390      C1395   1.410       .  A
C1390      C1601   1.496       .  S
C1391      C1392   1.404       .  A
C1391      H1396   1.084       .  S
C1392      C1393   1.402       .  A
C1392      C1524   1.472       .  S
C1393      C1394   1.401       .  A
C1393      H1397   1.085       .  S
C1394      C1395   1.404       .  A
C1394      C1467   1.471       .  S
C1395      H1398   1.084       .  S
C1399      C1400   1.413       .  A
C1399      C1404   1.411       .  A
C1399      C1570   1.500       .  S
C1400      C1401   1.405       .  A
C1400      H1405   1.083       .  S
C1401      C1402   1.398       .  A
C1401      C1432   1.470       .  S
C1402      C1403   1.397       .  A
C1402      H1406   1.085       .  S
C1403      C1404   1.403       .  A
C1403      C1528   1.467       .  S
C1404      H1407   1.083       .  S
C1408      C1409   1.400       .  A
C1408      C1413   1.400       .  A
C1408      C1629   1.488       .  S
C1409      C1410   1.402       .  A
C1409      H1414   1.081       .  S
C1410      C1411   1.403       .  A
C1410      C1518   1.472       .  S
C1411      C1412   1.403       .  A
C1411      H1415   1.083       .  S
C1412      C1413   1.404       .  A
C1412      C1457   1.474       .  S
C1413      H1416   1.080       .  S
C1417      C1454   1.461       .  S
C1417      N1435   1.348       .  A
N1418      N1435   1.323       .  A
N1418      N1440   1.321       .  A
N1418     Co1455   2.070       .  S
C1419      C1457   1.457       .  S
C1419      H1464   1.081       .  S
C1419      N1444   1.333       .  A
H1420      C1461   1.081       .  S
C1421      C1425   1.461       .  S
C1421      H1450   1.081       .  S
C1421      N1445   1.335       .  A
Co1422     N1440   2.090       .  S
Co1422     N1430   2.062       .  S
Co1422     N1462   2.063       .  S
Co1422     N1438   2.098       .  S
Co1422    Cl1466   2.423       .  S
N1423      C1461   1.349       .  A
N1423      N1430   1.318       .  A
N1423     Co1424   2.102       .  S
Co1424     N1427   2.065       .  S
Co1424     N1444   2.064       .  S
Co1424     N1431   2.101       .  S
Co1424    Cl1466   2.476       .  S
C1425      C1481   1.469       .  S
C1425      N1463   1.347       .  A
N1426      N1433   1.318       .  A
N1426      N1456   1.322       .  A
N1426     Co1459   2.067       .  S
N1427      N1445   1.321       .  A
N1427      N1463   1.322       .  A
N1428      C1457   1.353       .  A
N1428      N1438   1.326       .  A
H1429      C1454   1.081       .  S
N1430      N1451   1.320       .  A
N1431      N1449   1.318       .  A
N1431      N1436   1.329       .  A
C1432      C1460   1.450       .  S
C1432      N1436   1.355       .  A
N1433      C1448   1.347       .  A
N1433     Co1455   2.098       .  S
C1434      C1437   1.451       .  S
C1434      H1468   1.082       .  S
C1434      N1462   1.335       .  A
C1437      N1458   1.353       .  A
N1438      N1444   1.321       .  A
N1439      C1465   1.338       .  A
N1439      N1441   1.320       .  A
N1439     Co1455   2.068       .  S
N1440      C1454   1.338       .  A
N1441      N1469   1.323       .  A
N1441     Co1459   2.095       .  S
H1442      C1465   1.081       .  S
H1443      C1460   1.082       .  S
N1445     Co1459   2.087       .  S
N1446      N1458   1.328       .  A
N1446      N1462   1.318       .  A
N1446     Co1455   2.095       .  S
C1447      C1461   1.469       .  S
C1447      C1472   1.471       .  S
C1447      N1451   1.342       .  A
C1448      C1467   1.467       .  S
C1448      H1452   1.082       .  S
N1449      C1460   1.334       .  A
N1449     Co1459   2.061       .  S
C1453      C1465   1.457       .  S
C1453      N1469   1.352       .  A
Co1455    Cl1466   2.475       .  S
N1456      C1467   1.345       .  A
Co1459    Cl1466   2.420       .  S
C1470      C1471   1.412       .  A
C1470      C1475   1.412       .  A
C1470      C1587   1.498       .  S
C1471      C1472   1.405       .  A
C1471      H1476   1.084       .  S
C1472      C1473   1.401       .  A
C1473      C1474   1.400       .  A
C1473      H1477   1.085       .  S
C1474      C1475   1.404       .  A
C1474      C1496   1.474       .  S
C1475      H1478   1.084       .  S
C1479      C1480   1.406       .  A
C1479      C1484   1.414       .  A
C1479      C1640   1.494       .  S
C1480      C1481   1.399       .  A
C1480      H1485   1.083       .  S
C1481      C1482   1.393       .  A
C1482      C1483   1.397       .  A
C1482      H1486   1.078       .  S
C1483      C1484   1.406       .  A
C1483      C1503   1.477       .  S
C1484      H1487   1.083       .  S
C1488      C1525   1.452       .  S
C1488      N1506   1.355       .  A
N1489      N1506   1.330       .  A
N1489      N1511   1.318       .  A
C1490      C1528   1.462       .  S
C1490      H1535   1.082       .  S
C1490      N1515   1.345       .  A
H1491      C1532   1.081   1_565  S
C1492      C1496   1.456       .  S
C1492      H1521   1.082       .  S
C1492      N1516   1.338       .  A
Co1493     N1533   2.089       .  S
Co1493     N1509   2.072       .  S
Co1493    Cl2125   2.423   1_545  S
N1494      C1532   1.335       .  A
N1494      N1501   1.321       .  A
Co1495     N2103   2.087       .  S
Co1495     N1502   2.077       .  S
Co1495    Cl1537   2.476       .  S
C1496      N1534   1.353       .  A
N1497      N1504   1.321       .  A
N1497      N1527   1.323       .  A
N1498      N1516   1.318       .  A
N1498      N1534   1.329       .  A
N1499      C1528   1.346       .  A
N1499      N1509   1.321       .  A
H1500      C1525   1.082       .  S
N1501      N1522   1.325       .  A
N1502      N1520   1.320       .  A
N1502      N1507   1.327       .  A
C1503      C1531   1.461       .  S
C1503      N1507   1.351       .  A
N1504      C1519   1.335       .  A
C1505      C1508   1.462       .  S
C1505      H1539   1.081       .  S
C1505      N1533   1.339       .  A
C1508      N1529   1.348       .  A
N1509      N1515   1.318       .  A
N1510      C1536   1.348       .  A
N1510      N1512   1.318       .  A
N1510     Co1526   2.098       .  S
N1511      C1525   1.334       .  A
N1512      N1540   1.321       .  A
N1512     Co1530   2.070       .  S
H1513      C1536   1.081       .  S
H1514      C1531   1.080       .  S
N1515     Co2083   2.087   1_545  S
N1517      N1529   1.321       .  A
N1517      N1533   1.321       .  A
N1517     Co2114   2.069   1_545  S
C1518      C1532   1.458       .  S
C1518      N1522   1.350       .  A
C1519      C1538   1.457       .  S
C1519      H1523   1.081       .  S
N1520      C1531   1.333       .  A
N1520     Co1530   2.086       .  S
C1524      C1536   1.468       .  S
C1524      N1540   1.345       .  A
Co1526     N2105   2.069       .  S
Co1526    Cl1537   2.476       .  S
N1527      C1538   1.351       .  A
Co1530    Cl1537   2.420       .  S
Cl1537    Co2081   2.423       .  S
C1541      C1542   1.408   1_545  A
C1541      C1546   1.407       .  A
C1541      H1548   1.082       .  S
C1542      C2131   1.418       .  A
C1542      C1950   1.502       .  S
C1543      C2130   1.418       .  A
C1543      C2132   1.396       .  A
C1543      N1550   1.437       .  S
C1544      C2131   1.396   1_545  A
C1544      C1545   1.402       .  A
C1544      H1549   1.084   1_545  S
C1545      C1546   1.416       .  A
C1546      N1547   1.439       .  S
N1547      O1551   1.263       .  A
N1547      O1552   1.263       .  A
N1550      O1553   1.261       .  A
N1550      O1554   1.263       .  A
C1555      C1556   1.407       .  A
C1555      C1560   1.399       .  A
C1555      H1562   1.082       .  S
C1556      C1557   1.417       .  A
C1557      C1558   1.402       .  A
C1557      N1564   1.438       .  S
C1558      C1559   1.403       .  A
C1558      H1563   1.077       .  S
C1559      C1560   1.412       .  A
C1560      N1561   1.439       .  S
N1561      O1565   1.263       .  A
N1561      O2154   1.263       .  A
N1564      O1567   1.263       .  A
N1564      O1568   1.263       .  A
O1566      N2149   1.263       .  A
C1569      C1570   1.410       .  A
C1569      C1574   1.407       .  A
C1569      H1576   1.083       .  S
C1570      C1571   1.415       .  A
C1571      C1572   1.405       .  A
C1571      N1578   1.440       .  S
C1572      C1573   1.408       .  A
C1572      H1577   1.076       .  S
C1573      C1574   1.414       .  A
C1574      N1575   1.437       .  S
N1575      O1579   1.263       .  A
N1575      O1580   1.262       .  A
N1578      O1581   1.263       .  A
N1578      O1582   1.263       .  A
C1583      C1584   1.410   1_655  A
C1583      C1588   1.408       .  A
C1583      H1590   1.079       .  S
C1584      C1585   1.415       .  A
C1585      C1586   1.403   1_455  A
C1586      C1587   1.407       .  A
C1586      H1591   1.083   1_655  S
C1587      C1588   1.417       .  A
C1588      N1589   1.440       .  S
N1589      O1593   1.263       .  A
N1589      O1594   1.263       .  A
N1592      O1595   1.262       .  A
C1597      C1598   1.408       .  A
C1597      C1602   1.406       .  A
C1597      H1604   1.080       .  S
C1598      C1599   1.418       .  A
C1599      C1600   1.406       .  A
C1599      N1606   1.440       .  S
C1600      C1601   1.407       .  A
C1600      H1605   1.083       .  S
C1601      C1602   1.416       .  A
C1602      N1603   1.439       .  S
N1603      O1607   1.263       .  A
N1603      O1608   1.263       .  A
N1606      O1609   1.262       .  A
C1611      C1612   1.408       .  A
C1611      C1616   1.403   1_655  A
C1611      H1618   1.082   1_655  S
C1612      C1613   1.419       .  A
C1613      C1614   1.408       .  A
C1613      N1620   1.440       .  S
C1614      C1615   1.408       .  A
C1614      H1619   1.082       .  S
C1615      C1616   1.413   1_655  A
N1617      O1621   1.262       .  A
N1617      O1622   1.262       .  A
N1620      O1623   1.263       .  A
N1620      O1624   1.263       .  A
C1625      C1626   1.404   1_545  A
C1625      C1630   1.396       .  A
C1625      H1632   1.084       .  S
C1626      C1627   1.424       .  A
C1626      C1944   1.485       .  S
C1627      C1628   1.405   1_565  A
C1627      N1634   1.448       .  S
C1628      C1629   1.407       .  A
C1628      H1633   1.082       .  S
C1629      C1630   1.415       .  A
C1630      N1631   1.439       .  S
N1631      O1635   1.263       .  A
N1631      O1636   1.263       .  A
N1634      O1637   1.263       .  A
N1634      O2226   1.261       .  A
O1638      N2222   1.261       .  A
C1639      C1640   1.406       .  A
C1639      C1644   1.401       .  A
C1639      H1646   1.084       .  S
C1640      C1641   1.413       .  A
C1641      C1642   1.403       .  A
C1641      N1648   1.441       .  S
C1642      C1643   1.405       .  A
C1642      H1647   1.072       .  S
C1643      C1644   1.418       .  A
C1644      N1645   1.431       .  S
N1645      O1649   1.263       .  A
N1645      O1650   1.261       .  A
N1648      O1651   1.263       .  A
N1648      O1652   1.263       .  A
C1653      C1654   1.407   1_545  A
C1653      C1658   1.399       .  A
C1653      H1660   1.077       .  S
C1654      C1655   1.425       .  A
C1654      C1949   1.513       .  S
C1655      C1656   1.410   1_565  A
C1655      N1662   1.438       .  S
C1656      C1657   1.405       .  A
C1656      H1661   1.083       .  S
C1657      C1658   1.414       .  A
C1658      N1659   1.437       .  S
N1659      O1663   1.262       .  A
N1659      O1664   1.263       .  A
N1662      O2253   1.260       .  A
N1662      O1666   1.263   1_554  A
O1665      N2250   1.260       .  A
C1667      C1668   1.414       .  A
C1667      C1672   1.406       .  A
C1667      H1674   1.076       .  S
C1668      C1669   1.426       .  A
C1669      C1670   1.399       .  A
C1669      N1676   1.436       .  S
C1670      C1671   1.397       .  A
C1670      H1675   1.079       .  S
C1671      C1672   1.418       .  A
C1672      N1673   1.448       .  S
N1673      O1677   1.263       .  A
N1673      O1678   1.261       .  A
N1676      O1679   1.263       .  A
N1676      O1680   1.263       .  A
C1681      C1682   1.420       .  A
C1681      C1686   1.414       .  A
C1681      H1688   1.069       .  S
C1682      C1683   1.431       .  A
C1682      C1943   1.556   1_545  S
C1683      C1684   1.402       .  A
C1683      N2278   1.431   1_545  S
C1684      C1685   1.396       .  A
C1684      H1689   1.085       .  S
C1685      C1686   1.409       .  A
C1686      N1687   1.445       .  S
N1687      O1691   1.263       .  A
N1687      O1692   1.263       .  A
N1690      C2271   1.431       .  S
N1690      O2281   1.262       .  A
N1690      O1694   1.262       .  A
O1693      N2278   1.262   1_545  A
C1695      C1696   1.403       .  A
C1695      C1700   1.398       .  A
C1695      H1702   1.084       .  S
C1696      C1697   1.415       .  A
C1697      C1698   1.400       .  A
C1697      N1704   1.435       .  S
C1698      C1699   1.409       .  A
C1698      H1703   1.082       .  S
C1699      C1700   1.420       .  A
C1700      N1701   1.430       .  S
N1701      O1705   1.262       .  A
N1701      O1706   1.263       .  A
N1704      O1708   1.258   1_554  A
C1709      C1710   1.408       .  A
C1709      C1714   1.396       .  A
C1709      H1716   1.083       .  S
C1710      C1711   1.420       .  A
C1711      C1712   1.408   1_655  A
C1711      N1718   1.437       .  S
C1712      C1713   1.406   1_455  A
C1712      H1717   1.083       .  S
C1713      C1714   1.408       .  A
C1714      N1715   1.434       .  S
N1715      O1719   1.262       .  A
N1715      O1720   1.263       .  A
N1718      O1721   1.263       .  A
N1718      O1722   1.263   1_655  A
C1723      C1724   1.402       .  A
C1723      C1728   1.405       .  A
C1723      H1730   1.084       .  S
C1724      C1725   1.420       .  A
C1725      C1726   1.408       .  A
C1725      N1732   1.451       .  S
C1726      C1727   1.413       .  A
C1726      H1731   1.080       .  S
C1727      C1728   1.425       .  A
C1728      N1729   1.435       .  S
N1729      O1733   1.263       .  A
N1729      O1734   1.263       .  A
N1732      O1735   1.263       .  A
N1732      O1736   1.263       .  A
C1737      C1738   1.401       .  A
C1737      C1742   1.408       .  A
C1737      H1744   1.083       .  S
C1738      C1739   1.408       .  A
C1739      C1740   1.404       .  A
C1739      N1746   1.432       .  S
C1740      C1741   1.416       .  A
C1740      H1745   1.078       .  S
C1741      C1742   1.431       .  A
C1742      N1743   1.433       .  S
N1743      O1747   1.263       .  A
N1743      O1748   1.263       .  A
N1746      O1749   1.263       .  A
N1746      O1750   1.261       .  A
C1751      C1752   1.406       .  A
C1751      C1756   1.410   1_455  A
C1751      H1758   1.082       .  S
C1752      C1753   1.414   1_455  A
C1753      C1754   1.392       .  A
C1753      N1760   1.433       .  S
C1754      C1755   1.403       .  A
C1754      H1759   1.083       .  S
C1755      C1756   1.420       .  A
C1756      N1757   1.438       .  S
N1757      O1761   1.263   1_655  A
N1757      O1762   1.263       .  A
N1760      O1763   1.262       .  A
C1765      C1766   1.407       .  A
C1765      C1770   1.406       .  A
C1765      C2343   1.494       .  S
C1766      C1767   1.399       .  A
C1766      H1771   1.081       .  S
C1767      C1768   1.399       .  A
C1767      C1940   1.473       .  S
C1768      C1769   1.400       .  A
C1768      H1772   1.082       .  S
C1769      C1770   1.407       .  A
C1769      C1801   1.473       .  S
C1770      H1773   1.083       .  S
C1774      C1775   1.420       .  A
C1774      C1779   1.422       .  A
C1774      C2329   1.527       .  S
C1775      C1776   1.407       .  A
C1775      H1780   1.078       .  S
C1776      C1777   1.397       .  A
C1776      C1831   1.474       .  S
C1777      C1778   1.394       .  A
C1777      H1781   1.085       .  S
C1778      C1779   1.403       .  A
C1778      C1898   1.473       .  S
C1779      H1782   1.079       .  S
C1783      C1784   1.417       .  A
C1783      C1788   1.415       .  A
C1783      C2315   1.515       .  S
C1784      C1785   1.408       .  A
C1784      H1789   1.081       .  S
C1785      C1786   1.399       .  A
C1785      C1926   1.473       .  S
C1786      C1787   1.396       .  A
C1786      H1790   1.085       .  S
C1787      C1788   1.400       .  A
C1787      C1851   1.468       .  S
C1788      H1791   1.081       .  S
C1792      C1793   1.402       .  A
C1792      C1797   1.405       .  A
C1792      C2298   1.497       .  S
C1793      C1794   1.400       .  A
C1793      H1798   1.080       .  S
C1794      C1795   1.402       .  A
C1794      C1920   1.476       .  S
C1795      C1796   1.405       .  A
C1795      H1799   1.083       .  S
C1796      C1797   1.410       .  A
C1796      C1841   1.478       .  S
C1797      H1800   1.081       .  S
C1801      C1838   1.465       .  S
N1802      N1819   1.322       .  A
N1802     Co1839   2.067       .  S
C1803      C1841   1.457       .  S
C1805      C1809   1.457       .  S
C1805      H1834   1.080       .  S
C1805      N1829   1.333       .  A
Co1806     N1824   2.099       .  S
Co1806     N1814   2.074       .  S
N1807     Co1808   2.093       .  S
Co1808     N1811   2.073       .  S
Co1808    Cl1850   2.477       .  S
C1809      C1856   1.471       .  S
C1809      N1847   1.350       .  A
N1810      N1817   1.317       .  A
N1810      N1840   1.321       .  A
N1810     Co1843   2.063       .  S
N1811      N1829   1.320       .  A
N1811      N1847   1.325       .  A
N1812      C1841   1.355       .  A
N1812      N1822   1.327       .  A
H1813      C1838   1.081       .  S
N1814      N1835   1.320       .  A
N1815      N1833   1.318       .  A
N1815      N1820   1.327       .  A
C1816      C1844   1.455       .  S
C1816      C1883   1.469       .  S
C1816      N1820   1.353       .  A
N1817      C1832   1.346       .  A
N1817     Co1839   2.098       .  S
C1818      C1821   1.450       .  S
C1818      H1852   1.082       .  S
C1818      N1846   1.335       .  A
C1821      C1865   1.475       .  S
C1821      N1842   1.356       .  A
N1823      C1849   1.338       .  A
N1823      N1825   1.321       .  A
N1824      C1838   1.341       .  A
N1825      N1853   1.322       .  A
H1826      C1849   1.081       .  S
H1827      C1844   1.082       .  S
N1829     Co1843   2.079       .  S
C1831      C1845   1.466       .  S
C1831      N1835   1.346       .  A
C1832      C1851   1.467       .  S
C1832      H1836   1.082       .  S
N1833      C1844   1.337       .  A
C1837      C1849   1.461       .  S
C1837      C1876   1.472       .  S
C1837      N1853   1.350       .  A
Co1839    Cl1850   2.475       .  S
N1840      C1851   1.343       .  A
Co1843    Cl1850   2.423       .  S
C1854      C1855   1.415       .  A
C1854      C1859   1.412       .  A
C1854      C2287   1.502       .  S
C1855      C1856   1.398       .  A
C1855      H1860   1.082       .  S
C1856      C1857   1.392       .  A
C1857      C1858   1.392       .  A
C1857      H1861   1.078       .  S
C1858      C1859   1.403       .  A
C1858      C1905   1.471       .  S
C1859      H1862   1.079       .  S
C1863      C1864   1.410       .  A
C1863      C1868   1.406       .  A
C1863      C2273   1.485       .  S
C1864      C1865   1.407       .  A
C1864      H1869   1.084       .  S
C1865      C1866   1.402       .  A
C1866      C1867   1.401       .  A
C1866      H1870   1.085       .  S
C1867      C1868   1.402       .  A
C1867      C1890   1.473       .  S
C1868      H1871   1.084       .  S
C1872      C1873   1.417       .  A
C1872      C1877   1.412       .  A
C1872      C2256   1.516       .  S
C1873      C1874   1.402       .  A
C1873      H1878   1.077       .  S
C1874      C1875   1.395       .  A
C1874      C1910   1.472       .  S
C1875      C1876   1.395       .  A
C1875      H1879   1.082       .  S
C1876      C1877   1.401       .  A
C1877      H1880   1.076       .  S
C1881      C1882   1.407       .  A
C1881      C1886   1.412       .  A
C1881      C2245   1.494       .  S
C1882      C1883   1.401       .  A
C1882      H1887   1.084       .  S
C1883      C1884   1.399       .  A
C1884      C1885   1.402       .  A
C1884      H1888   1.085       .  S
C1885      C1886   1.405       .  A
C1885      C1930   1.471       .  S
C1886      H1889   1.083       .  S
C1890      C1927   1.453       .  S
C1890      N1908   1.355       .  A
N1891      N1908   1.329       .  A
N1891      N1913   1.319       .  A
N1891     Co1928   2.100       .  S
C1892      C1930   1.467       .  S
C1892      H1937   1.081       .  S
C1892      N1917   1.348       .  A
H1893      C1934   1.081       .  S
C1894      C1898   1.452       .  S
C1894      H1923   1.082       .  S
C1894      N1918   1.337       .  A
Co1895     N1913   2.069       .  S
Co1895     N1903   2.092       .  S
Co1895     N1935   2.087       .  S
Co1895     N1911   2.070       .  S
Co1895    Cl1939   2.427       .  S
N1896      C1934   1.333       .  A
N1896      N1903   1.320       .  A
N1896     Co1897   2.070       .  S
Co1897     N1900   2.103       .  S
Co1897     N1917   2.097       .  S
Co1897     N1904   2.067       .  S
Co1897    Cl1939   2.474       .  S
C1898      N1936   1.355       .  A
N1899      N1906   1.320       .  A
N1899      N1929   1.322       .  A
N1899     Co1932   2.086       .  S
N1900      N1918   1.319       .  A
N1900      N1936   1.328       .  A
N1901      C1930   1.344       .  A
N1901      N1911   1.320       .  A
H1902      C1927   1.082       .  S
N1903      N1924   1.326       .  A
N1904      N1922   1.321       .  A
N1904      N1909   1.324       .  A
C1905      C1933   1.462       .  S
C1905      N1909   1.348       .  A
N1906      C1921   1.338       .  A
N1906     Co1928   2.075       .  S
C1907      C1910   1.460       .  S
C1907      H1941   1.081       .  S
C1907      N1935   1.339       .  A
C1910      N1931   1.349       .  A
N1911      N1917   1.318       .  A
N1912      C1938   1.348       .  A
N1912      N1914   1.318       .  A
N1912     Co1928   2.093       .  S
N1913      C1927   1.336       .  A
N1914      N1942   1.321       .  A
N1914     Co1932   2.077       .  S
H1915      C1938   1.081       .  S
H1916      C1933   1.081       .  S
N1918     Co1932   2.068       .  S
N1919      N1931   1.323       .  A
N1919      N1935   1.321       .  A
N1919     Co1928   2.074       .  S
C1920      C1934   1.460       .  S
C1920      N1924   1.352       .  A
C1921      C1940   1.462       .  S
C1921      H1925   1.081       .  S
N1922      C1933   1.333       .  A
N1922     Co1932   2.083       .  S
C1926      C1938   1.465       .  S
C1926      N1942   1.347       .  A
Co1928    Cl1939   2.476       .  S
N1929      C1940   1.349       .  A
Co1932    Cl1939   2.422       .  S
C1943      C1944   1.395       .  D
C1943      C2312   1.499       .  S
C1944      C2231   1.517       .  S
C1945      C1946   1.374   1_556  D
C1945      C2186   1.508       .  S
C1946      C2284   1.494       .  S
C1947      C1948   1.375       .  D
C1947      C2259   1.493       .  S
C1948      C2161   1.512       .  S
C1949      C1950   1.376   1_554  D
C1949      C2326   1.508       .  S
C1950      C2147   1.496       .  S
C1951      C1952   1.403       .  A
C1951      C1956   1.407       .  A
C1951      C2144   1.490       .  S
C1952      C1953   1.400       .  A
C1952      H1957   1.081       .  S
C1953      C1954   1.397       .  A
C1953      C2126   1.470       .  S
C1954      C1955   1.399       .  A
C1954      H1958   1.082       .  S
C1955      C1956   1.404       .  A
C1955      C2005   1.471       .  S
C1956      H1959   1.083       .  S
C1960      C1961   1.411       .  A
C1960      C1965   1.414       .  A
C1960      C2200   1.499       .  S
C1961      C1962   1.402       .  A
C1961      H1966   1.083       .  S
C1962      C1963   1.397       .  A
C1962      C2025   1.469       .  S
C1963      C1964   1.399       .  A
C1963      H1967   1.085       .  S
C1964      C1965   1.405       .  A
C1964      C2076   1.472       .  S
C1965      H1968   1.083       .  S
C1969      C1970   1.404       .  A
C1969      C1974   1.406       .  A
C1969      C2133   1.487       .  S
C1970      C1971   1.401       .  A
C1970      H1975   1.084       .  S
C1971      C1972   1.398       .  A
C1971      C2096   1.471       .  S
C1972      C1973   1.400       .  A
C1972      H1976   1.082       .  S
C1973      C1974   1.406       .  A
C1973      C2041   1.473       .  S
C1974      H1977   1.082       .  S
C1978      C1979   1.410       .  A
C1978      C1983   1.410       .  A
C1978      C2189   1.496       .  S
C1979      C1980   1.404       .  A
C1979      H1984   1.084       .  S
C1980      C1981   1.402       .  A
C1980      C2112   1.472       .  S
C1981      C1982   1.401       .  A
C1981      H1985   1.085       .  S
C1982      C1983   1.404       .  A
C1982      C2055   1.471       .  S
C1983      H1986   1.084       .  S
C1987      C1988   1.413       .  A
C1987      C1992   1.411       .  A
C1987      C2158   1.500       .  S
C1988      C1989   1.405       .  A
C1988      H1993   1.083       .  S
C1989      C1990   1.398       .  A
C1989      C2020   1.470       .  S
C1990      C1991   1.397       .  A
C1990      H1994   1.085       .  S
C1991      C1992   1.403       .  A
C1991      C2116   1.467       .  S
C1992      H1995   1.083       .  S
C1996      C1997   1.400       .  A
C1996      C2001   1.400       .  A
C1996      C2217   1.488       .  S
C1997      C1998   1.402       .  A
C1997      H2002   1.081       .  S
C1998      C1999   1.403       .  A
C1998      C2106   1.472       .  S
C1999      C2000   1.403       .  A
C1999      H2003   1.083       .  S
C2000      C2001   1.404       .  A
C2000      C2045   1.474       .  S
C2001      H2004   1.080       .  S
C2005      C2042   1.461       .  S
C2005      N2023   1.348       .  A
N2006      N2023   1.323       .  A
N2006      N2028   1.321       .  A
N2006     Co2043   2.070       .  S
C2007      C2045   1.457       .  S
C2007      H2052   1.081       .  S
C2007      N2032   1.333       .  A
H2008      C2049   1.081       .  S
C2009      C2013   1.461       .  S
C2009      H2038   1.081       .  S
C2009      N2033   1.335       .  A
Co2010     N2028   2.090       .  S
Co2010     N2018   2.062       .  S
Co2010     N2050   2.063       .  S
Co2010     N2026   2.098       .  S
Co2010    Cl2054   2.423       .  S
N2011      C2049   1.349       .  A
N2011      N2018   1.318       .  A
N2011     Co2012   2.102       .  S
Co2012     N2015   2.065       .  S
Co2012     N2032   2.064       .  S
Co2012     N2019   2.101       .  S
Co2012    Cl2054   2.476       .  S
C2013      C2069   1.469       .  S
C2013      N2051   1.347       .  A
N2014      N2021   1.318       .  A
N2014      N2044   1.322       .  A
N2014     Co2047   2.067       .  S
N2015      N2033   1.321       .  A
N2015      N2051   1.322       .  A
N2016      C2045   1.353       .  A
N2016      N2026   1.326       .  A
H2017      C2042   1.081       .  S
N2018      N2039   1.320       .  A
N2019      N2037   1.318       .  A
N2019      N2024   1.329       .  A
C2020      C2048   1.450       .  S
C2020      N2024   1.355       .  A
N2021      C2036   1.347       .  A
N2021     Co2043   2.098       .  S
C2022      C2025   1.451       .  S
C2022      H2056   1.082       .  S
C2022      N2050   1.335       .  A
C2025      N2046   1.353       .  A
N2026      N2032   1.321       .  A
N2027      C2053   1.338       .  A
N2027      N2029   1.320       .  A
N2027     Co2043   2.068       .  S
N2028      C2042   1.338       .  A
N2029      N2057   1.323       .  A
N2029     Co2047   2.095       .  S
H2030      C2053   1.081       .  S
H2031      C2048   1.082       .  S
N2033     Co2047   2.087       .  S
N2034      N2046   1.328       .  A
N2034      N2050   1.318       .  A
N2034     Co2043   2.095       .  S
C2035      C2049   1.469       .  S
C2035      C2060   1.471       .  S
C2035      N2039   1.342       .  A
C2036      C2055   1.467       .  S
C2036      H2040   1.082       .  S
N2037      C2048   1.334       .  A
N2037     Co2047   2.061       .  S
C2041      C2053   1.457       .  S
C2041      N2057   1.352       .  A
Co2043    Cl2054   2.475       .  S
N2044      C2055   1.345       .  A
Co2047    Cl2054   2.420       .  S
C2058      C2059   1.412       .  A
C2058      C2063   1.412       .  A
C2058      C2175   1.498       .  S
C2059      C2060   1.405       .  A
C2059      H2064   1.084       .  S
C2060      C2061   1.401       .  A
C2061      C2062   1.400       .  A
C2061      H2065   1.085       .  S
C2062      C2063   1.404       .  A
C2062      C2084   1.474       .  S
C2063      H2066   1.084       .  S
C2067      C2068   1.406       .  A
C2067      C2072   1.414       .  A
C2067      C2228   1.494       .  S
C2068      C2069   1.399       .  A
C2068      H2073   1.083       .  S
C2069      C2070   1.393       .  A
C2070      C2071   1.397       .  A
C2070      H2074   1.078       .  S
C2071      C2072   1.406       .  A
C2071      C2091   1.477       .  S
C2072      H2075   1.083       .  S
C2076      C2113   1.452       .  S
C2076      N2094   1.355       .  A
N2077      N2094   1.330       .  A
N2077      N2099   1.318       .  A
C2078      C2116   1.462       .  S
C2078      H2123   1.082       .  S
C2078      N2103   1.345       .  A
H2079      C2120   1.081       .  S
C2080      C2084   1.456       .  S
C2080      H2109   1.082       .  S
C2080      N2104   1.338       .  A
Co2081     N2121   2.089       .  S
Co2081     N2097   2.072       .  S
N2082      C2120   1.335       .  A
N2082      N2089   1.321       .  A
Co2083     N2090   2.077       .  S
Co2083    Cl2125   2.476       .  S
C2084      N2122   1.353       .  A
N2085      N2092   1.321       .  A
N2085      N2115   1.323       .  A
N2086      N2104   1.318       .  A
N2086      N2122   1.329       .  A
N2087      C2116   1.346       .  A
N2087      N2097   1.321       .  A
H2088      C2113   1.082       .  S
N2089      N2110   1.325       .  A
N2090      N2108   1.320       .  A
N2090      N2095   1.327       .  A
C2091      C2119   1.461       .  S
C2091      N2095   1.351       .  A
N2092      C2107   1.335       .  A
C2093      C2096   1.462       .  S
C2093      H2127   1.081       .  S
C2093      N2121   1.339       .  A
C2096      N2117   1.348       .  A
N2097      N2103   1.318       .  A
N2098      C2124   1.348       .  A
N2098      N2100   1.318       .  A
N2098     Co2114   2.098       .  S
N2099      C2113   1.334       .  A
N2100      N2128   1.321       .  A
N2100     Co2118   2.070       .  S
H2101      C2124   1.081       .  S
H2102      C2119   1.080       .  S
N2105      N2117   1.321       .  A
N2105      N2121   1.321       .  A
C2106      C2120   1.458       .  S
C2106      N2110   1.350       .  A
C2107      C2126   1.457       .  S
C2107      H2111   1.081       .  S
N2108      C2119   1.333       .  A
N2108     Co2118   2.086       .  S
C2112      C2124   1.468       .  S
C2112      N2128   1.345       .  A
Co2114    Cl2125   2.476       .  S
N2115      C2126   1.351       .  A
Co2118    Cl2125   2.420       .  S
C2129      C2130   1.408       .  A
C2129      C2134   1.407       .  A
C2129      H2136   1.082       .  S
C2131      N2138   1.437       .  S
C2132      C2133   1.402       .  A
C2132      H2137   1.084       .  S
C2133      C2134   1.416       .  A
C2134      N2135   1.439       .  S
N2135      O2139   1.263       .  A
N2135      O2140   1.263       .  A
N2138      O2141   1.261       .  A
N2138      O2142   1.263       .  A
C2143      C2144   1.407       .  A
C2143      C2148   1.399       .  A
C2143      H2150   1.082       .  S
C2144      C2145   1.417       .  A
C2145      C2146   1.402       .  A
C2145      N2152   1.438       .  S
C2146      C2147   1.403       .  A
C2146      H2151   1.077       .  S
C2147      C2148   1.412       .  A
C2148      N2149   1.439   1_565  S
N2149      O2153   1.263       .  A
N2152      O2155   1.263       .  A
N2152      O2156   1.263       .  A
C2157      C2158   1.410       .  A
C2157      C2162   1.407       .  A
C2157      H2164   1.083       .  S
C2158      C2159   1.415       .  A
C2159      C2160   1.405       .  A
C2159      N2166   1.440       .  S
C2160      C2161   1.408       .  A
C2160      H2165   1.076       .  S
C2161      C2162   1.414       .  A
C2162      N2163   1.437       .  S
N2163      O2167   1.263       .  A
N2163      O2168   1.262       .  A
N2166      O2169   1.263       .  A
N2166      O2170   1.263       .  A
C2171      C2172   1.410   1_655  A
C2171      C2176   1.408       .  A
C2171      H2178   1.079       .  S
C2172      C2173   1.415       .  A
C2173      C2174   1.403   1_455  A
C2174      C2175   1.407       .  A
C2174      H2179   1.083   1_655  S
C2175      C2176   1.417       .  A
C2176      N2177   1.440       .  S
N2177      O2181   1.263       .  A
N2177      O2182   1.263       .  A
N2180      O2183   1.262       .  A
C2185      C2186   1.408       .  A
C2185      C2190   1.406       .  A
C2185      H2192   1.080       .  S
C2186      C2187   1.418       .  A
C2187      C2188   1.406       .  A
C2187      N2194   1.440       .  S
C2188      C2189   1.407       .  A
C2188      H2193   1.083       .  S
C2189      C2190   1.416       .  A
C2190      N2191   1.439       .  S
N2191      O2195   1.263       .  A
N2191      O2196   1.263       .  A
N2194      O2197   1.262       .  A
C2199      C2200   1.408       .  A
C2199      C2204   1.403   1_655  A
C2199      H2206   1.082   1_655  S
C2200      C2201   1.419       .  A
C2201      C2202   1.408       .  A
C2201      N2208   1.440       .  S
C2202      C2203   1.408       .  A
C2202      H2207   1.082       .  S
C2203      C2204   1.413   1_655  A
N2205      O2209   1.262       .  A
N2205      O2210   1.262       .  A
N2208      O2211   1.263       .  A
N2208      O2212   1.263       .  A
C2213      C2214   1.404       .  A
C2213      C2218   1.396       .  A
C2213      H2220   1.084       .  S
C2214      C2215   1.424       .  A
C2215      C2216   1.405       .  A
C2215      N2222   1.448       .  S
C2216      C2217   1.407       .  A
C2216      H2221   1.082       .  S
C2217      C2218   1.415       .  A
C2218      N2219   1.439       .  S
N2219      O2223   1.263       .  A
N2219      O2224   1.263       .  A
N2222      O2225   1.263       .  A
C2227      C2228   1.406       .  A
C2227      C2232   1.401       .  A
C2227      H2234   1.083       .  S
C2228      C2229   1.413       .  A
C2229      C2230   1.403       .  A
C2229      N2236   1.441       .  S
C2230      C2231   1.405       .  A
C2230      H2235   1.070       .  S
C2231      C2232   1.418       .  A
C2232      N2233   1.431       .  S
N2233      O2237   1.263       .  A
N2233      O2238   1.261       .  A
N2236      O2239   1.263       .  A
N2236      O2240   1.263       .  A
C2241      C2242   1.407       .  A
C2241      C2246   1.399       .  A
C2241      H2248   1.077       .  S
C2242      C2243   1.425       .  A
C2243      C2244   1.410       .  A
C2243      N2250   1.438       .  S
C2244      C2245   1.405       .  A
C2244      H2249   1.083       .  S
C2245      C2246   1.414       .  A
C2246      N2247   1.437       .  S
N2247      O2251   1.262       .  A
N2247      O2252   1.263       .  A
N2250      O2254   1.263   1_554  A
C2255      C2256   1.414       .  A
C2255      C2260   1.406       .  A
C2255      H2262   1.076       .  S
C2256      C2257   1.426       .  A
C2257      C2258   1.399       .  A
C2257      N2264   1.436       .  S
C2258      C2259   1.397       .  A
C2258      H2263   1.079       .  S
C2259      C2260   1.418       .  A
C2260      N2261   1.448       .  S
N2261      O2265   1.263       .  A
N2261      O2266   1.261       .  A
N2264      O2267   1.263       .  A
N2264      O2268   1.263       .  A
C2269      C2270   1.420       .  A
C2269      C2274   1.414       .  A
C2269      H2276   1.069       .  S
C2270      C2271   1.431       .  A
C2271      C2272   1.402       .  A
C2272      C2273   1.396       .  A
C2272      H2277   1.085       .  S
C2273      C2274   1.409       .  A
C2274      N2275   1.445       .  S
N2275      O2279   1.263       .  A
N2275      O2280   1.263       .  A
N2278      O2282   1.262       .  A
C2283      C2284   1.403       .  A
C2283      C2288   1.398       .  A
C2283      H2290   1.084       .  S
C2284      C2285   1.415       .  A
C2285      C2286   1.400       .  A
C2285      N2292   1.435       .  S
C2286      C2287   1.409       .  A
C2286      H2291   1.082       .  S
C2287      C2288   1.420       .  A
C2288      N2289   1.430       .  S
N2289      O2293   1.262       .  A
N2289      O2294   1.263       .  A
N2292      O2296   1.258   1_554  A
C2297      C2298   1.408       .  A
C2297      C2302   1.396       .  A
C2297      H2304   1.083       .  S
C2298      C2299   1.420       .  A
C2299      C2300   1.408   1_655  A
C2299      N2306   1.437       .  S
C2300      C2301   1.406   1_455  A
C2300      H2305   1.083       .  S
C2301      C2302   1.408       .  A
C2302      N2303   1.434       .  S
N2303      O2307   1.262       .  A
N2303      O2308   1.263       .  A
N2306      O2309   1.263       .  A
N2306      O2310   1.263   1_655  A
C2311      C2312   1.402       .  A
C2311      C2316   1.405       .  A
C2311      H2318   1.084       .  S
C2312      C2313   1.420       .  A
C2313      C2314   1.408       .  A
C2313      N2320   1.451       .  S
C2314      C2315   1.413       .  A
C2314      H2319   1.080       .  S
C2315      C2316   1.425       .  A
C2316      N2317   1.435       .  S
N2317      O2321   1.263       .  A
N2317      O2322   1.263       .  A
N2320      O2323   1.263   1_565  A
N2320      O2324   1.263       .  A
C2325      C2326   1.401       .  A
C2325      C2330   1.408       .  A
C2325      H2332   1.083       .  S
C2326      C2327   1.408       .  A
C2327      C2328   1.404       .  A
C2327      N2334   1.432       .  S
C2328      C2329   1.416       .  A
C2328      H2333   1.078       .  S
C2329      C2330   1.431       .  A
C2330      N2331   1.433       .  S
N2331      O2335   1.263       .  A
N2331      O2336   1.263       .  A
N2334      O2337   1.263       .  A
N2334      O2338   1.261       .  A
C2339      C2340   1.406       .  A
C2339      C2344   1.410   1_455  A
C2339      H2346   1.082       .  S
C2340      C2341   1.414   1_455  A
C2341      C2342   1.392       .  A
C2341      N2348   1.433       .  S
C2342      C2343   1.403       .  A
C2342      H2347   1.083       .  S
C2343      C2344   1.420       .  A
C2344      N2345   1.438       .  S
N2345      O2349   1.263   1_655  A
N2345      O2350   1.263       .  A
N2348      O2351   1.262       .  A
