geometry optimzed in LAMMPS
_audit_creation_date              2020-12-01 
_audit_creation_method            'lammps2cif' 
_symmetry_space_group_name_H-M    'P1' 
_symmetry_Int_Tables_number       1 
_symmetry_cell_setting            triclinic 
loop_ 
_symmetry_equiv_pos_as_xyz 
  x,y,z 
_cell_length_a                    37.98636093 
_cell_length_b                    38.33919165154654 
_cell_length_c                    31.79035788218266 
_cell_angle_alpha                 90.2855511705184 
_cell_angle_beta                  90.30766773587146 
_cell_angle_gamma                 90.07347167527524 
loop_ 
_atom_site_label 
_atom_site_type_symbol 
_atom_site_fract_x 
_atom_site_fract_y 
_atom_site_fract_z 
_atom_site_charge 
In1        In  0.14381079  0.34311061  0.19426617     1.36900
C2          C  0.18786799  0.29163748  0.17770557     0.77200
O3          O  0.12228895  0.33123566  0.13001924    -0.61200
O4          O  0.14433052  0.38143719  0.14075250    -0.52100
C5          C  0.07973933  0.34404296  0.22904421     0.69900
O6          O  0.09732880  0.31634436  0.22495456    -0.47000
C7          C  0.19173348  0.36895112  0.24747040     0.74600
O8          O  0.15906575  0.28633273  0.19652104    -0.58900
O9          O  0.18112091  0.38585750  0.21580648    -0.49000
O10         O  0.19228525  0.32241042  0.16521264    -0.55300
C11         C  0.13101302  0.36023825  0.11452366     0.84800
O12         O  0.09545827  0.37114120  0.21668088    -0.57200
O13         O  0.17385098  0.34201096  0.25492820    -0.60500
In14       In  0.39667861  0.39495378  0.34790964     1.36900
C15         C  0.44325837  0.44521767  0.35662237     0.77200
O16         O  0.37876396  0.41316779  0.41055370    -0.61200
O17         O  0.39451097  0.36017509  0.40475908    -0.52100
C18         C  0.33189639  0.39055652  0.31574239     0.69900
O19         O  0.34833799  0.41915102  0.31880143    -0.47000
C20         C  0.44308147  0.36857570  0.29544165     0.74600
O21         O  0.41268649  0.45122858  0.34215795    -0.58900
O22         O  0.43549492  0.35346331  0.32957344    -0.49000
O23         O  0.44847246  0.41458395  0.36922649    -0.55300
C24         C  0.38370280  0.38435758  0.42865063     0.84800
O25         O  0.34939414  0.36427390  0.32747485    -0.57200
O26         O  0.42196774  0.39246668  0.28502794    -0.60500
In27       In  0.09456398  0.09856714  0.35563207     1.36900
C28         C  0.05221142  0.04510044  0.36821044     0.77200
O29         O  0.11676354  0.08323324  0.41806805    -0.61200
O30         O  0.09493759  0.13393544  0.41278713    -0.52100
C31         C  0.15805522  0.10469622  0.31913939     0.69900
O32         O  0.14407703  0.07557479  0.32716357    -0.47000
C33         C  0.04515390  0.12348192  0.30389784     0.74600
O34         O  0.08140299  0.04164509  0.34953016    -0.58900
O35         O  0.05457624  0.13962518  0.33696272    -0.49000
O36         O  0.04621663  0.07530094  0.38216779    -0.55300
C37         C  0.10877432  0.11127791  0.43650866     0.84800
O38         O  0.13888830  0.13044853  0.32869063    -0.57200
O39         O  0.06427753  0.09758764  0.29503362    -0.60500
In40       In  0.34628941  0.14243454  0.19149126     1.36900
C41         C  0.30074653  0.19197869  0.17443691     0.77200
O42         O  0.36930840  0.15891169  0.13049676    -0.61200
O43         O  0.34910055  0.10728519  0.13467819    -0.52100
C44         C  0.40985650  0.14013960  0.22815931     0.69900
O45         O  0.39238694  0.16803529  0.22483684    -0.47000
C46         C  0.29684059  0.11882518  0.24298229     0.74600
O47         O  0.32983016  0.19857598  0.19262771    -0.58900
O48         O  0.30762797  0.10045897  0.21236365    -0.49000
O49         O  0.29678330  0.16090539  0.16221522    -0.55300
C50         C  0.36234672  0.13068948  0.11159139     0.84800
O51         O  0.39386310  0.11328460  0.21480327    -0.57200
O52         O  0.31549355  0.14536607  0.25070911    -0.60500
In53       In  0.34899107  0.15129142  0.85167249     1.36900
C54         C  0.29583397  0.19362958  0.86694166     0.77200
O55         O  0.33494491  0.12625979  0.91250678    -0.61200
O56         O  0.38505164  0.15084165  0.90766603    -0.52100
C57         C  0.35301702  0.08831077  0.81561108     0.69900
O58         O  0.32452556  0.10515818  0.81777043    -0.47000
C59         C  0.37550133  0.20074811  0.80234680     0.74600
O60         O  0.29213065  0.16625608  0.84495453    -0.58900
O61         O  0.39126838  0.19083001  0.83528658    -0.49000
O62         O  0.32559683  0.19689769  0.88409333    -0.55300
C63         C  0.36311613  0.13530265  0.93083896     0.84800
O64         O  0.37948477  0.10469318  0.82971955    -0.57200
O65         O  0.34984756  0.18161509  0.79194506    -0.60500
In66       In  0.39567456  0.39986835  0.68906703     1.36900
C67         C  0.44724093  0.44440157  0.67450156     0.77200
O68         O  0.40904176  0.37496662  0.62744878    -0.61200
O69         O  0.35937215  0.40016267  0.63318827    -0.52100
C70         C  0.39158215  0.33735848  0.72564403     0.69900
O71         O  0.42067430  0.35216777  0.71847824    -0.47000
C72         C  0.37024035  0.44843206  0.74021435     0.74600
O73         O  0.45222992  0.41686395  0.69562280    -0.58900
O74         O  0.35300193  0.43806452  0.70831715    -0.49000
O75         O  0.41719950  0.44671424  0.65798808    -0.55300
C76         C  0.38109907  0.38481070  0.60943915     0.84800
O77         O  0.36496631  0.35533960  0.71569017    -0.57200
O78         O  0.39688932  0.43016231  0.74878226    -0.60500
In79       In  0.14755801  0.35439202  0.85248137     1.36900
C80         C  0.19756174  0.30780690  0.86448902     0.77200
O81         O  0.16257754  0.37374170  0.91685385    -0.61200
O82         O  0.11052146  0.35522991  0.90787016    -0.52100
C83         C  0.14779270  0.41809933  0.81841876     0.69900
O84         O  0.17549763  0.40044049  0.82352107    -0.47000
C85         C  0.11879063  0.30880791  0.79886407     0.74600
O86         O  0.20468924  0.33793789  0.85069470    -0.58900
O87         O  0.10325279  0.31857442  0.83201839    -0.49000
O88         O  0.16590364  0.30303112  0.87422125    -0.55300
C89         C  0.13330885  0.36687383  0.93345828     0.84800
O90         O  0.11997940  0.40249800  0.82931962    -0.57200
O91         O  0.14564405  0.32675453  0.79015947    -0.60500
In92       In  0.10252396  0.10397199  0.69907545     1.36900
C93         C  0.05286242  0.05706680  0.68676815     0.77200
O94         O  0.08285380  0.12323088  0.63703396    -0.61200
O95         O  0.13618776  0.10658687  0.64121978    -0.52100
C96         C  0.10324479  0.16860042  0.73202476     0.69900
O97         O  0.07618526  0.14941109  0.73207828    -0.47000
C98         C  0.13329845  0.05756457  0.74982998     0.74600
O99         O  0.04666158  0.08557523  0.70571191    -0.58900
O100        O  0.14746553  0.06757995  0.71601357    -0.49000
O101        O  0.08331538  0.05435874  0.67177210    -0.55300
C102        C  0.11133936  0.11741620  0.61800024     0.84800
O103        O  0.13024985  0.15394972  0.71702271    -0.57200
O104        O  0.10685083  0.07540142  0.76033699    -0.60500
C105        C  0.12050286  0.47675348  0.81632993    -0.26700
C106        C  0.14750500  0.45462369  0.80266665    -0.14800
C107        C  0.17271769  0.46788636  0.77414942     0.35900
C108        C  0.16998016  0.50244393  0.75975988    -0.26100
C109        C  0.14229421  0.52431949  0.77265379    -0.15400
C110        C  0.11749038  0.51104473  0.80159177     0.37000
N111        N  0.10428938  0.03836063  0.83192467    -0.89600
H112        H  0.10095896  0.46716012  0.83815394     0.18100
H113        H  0.18872058  0.51164965  0.73674535     0.18100
N114        N  0.20013160  0.44642882  0.75733444    -0.88700
H115        H  0.11397607  0.04105536  0.86261761     0.35400
H116        H  0.07916013  0.02728548  0.83350678     0.40500
H117        H  0.18863986  0.42446691  0.74316427     0.40200
H118        H  0.21639393  0.43836273  0.78198448     0.35000
C119        C  0.08456462  0.25306221  0.79314291    -0.26700
C120        C  0.10971826  0.27583612  0.77596666    -0.14800
C121        C  0.13031889  0.26373202  0.74200324     0.35900
C122        C  0.12728266  0.22895552  0.72816336    -0.26100
C123        C  0.10351995  0.20564905  0.74679123    -0.15400
C124        C  0.08114870  0.21841054  0.77892200     0.37000
N125        N  0.05596281  0.19646464  0.79923710    -0.89600
H126        H  0.06855087  0.26162987  0.81933017     0.18100
H127        H  0.14401018  0.22004235  0.70278410     0.18100
N128        N  0.15517078  0.28630510  0.72206516    -0.88700
H129        H  0.06911597  0.17486343  0.81165030     0.35400
H130        H  0.03763732  0.18791136  0.77683523     0.40500
H131        H  0.14878487  0.28754736  0.69006232     0.40200
H132        H  0.18014140  0.27510513  0.72488265     0.35000
C133        C  0.01714912  0.46528321  0.68333700    -0.26700
C134        C  0.47356305  0.47272746  0.67146484    -0.14800
C135        C  0.46520320  0.00719491  0.66991875     0.35900
C136        C  0.49045012  0.03367574  0.67171351    -0.26100
C137        C  0.02718110  0.02838631  0.68353299    -0.15400
C138        C  0.04268845  0.49169162  0.68485658     0.37000
N139        N  0.07885653  0.48266294  0.69177559    -0.89600
H140        H  0.02522058  0.43834343  0.68688879     0.18100
H141        H  0.48293077  0.06013177  0.66385365     0.18100
N142        N  0.42993754  0.01685553  0.65884070    -0.88700
H143        H  0.08664534  0.46577328  0.66762819     0.35400
H144        H  0.08069478  0.46919006  0.72021379     0.40500
H145        H  0.41309166  0.00991626  0.68334451     0.40200
H146        H  0.42260525  0.00369344  0.63130048     0.35000
C147        C  0.28102487  0.25546095  0.88057246    -0.26700
C148        C  0.26930193  0.22169521  0.86958448    -0.14800
C149        C  0.23366214  0.21673848  0.85809132     0.35900
C150        C  0.21095704  0.24529291  0.85753727    -0.26100
C151        C  0.22300630  0.27906093  0.86711519    -0.15400
C152        C  0.25831308  0.28430054  0.87894898     0.37000
N153        N  0.27091899  0.31867908  0.88927142    -0.89600
H154        H  0.30836366  0.25965879  0.88910089     0.18100
H155        H  0.18371422  0.24115189  0.84840286     0.18100
N156        N  0.21961020  0.18324591  0.84691491    -0.88700
H157        H  0.29766402  0.31800211  0.89710312     0.35400
H158        H  0.25764010  0.32702287  0.91624589     0.40500
H159        H  0.22482672  0.16586543  0.87139547     0.40200
H160        H  0.23184214  0.17445892  0.81949219     0.35000
C161        C  0.32886240  0.03886967  0.77181375    -0.26700
C162        C  0.35516659  0.05198024  0.79898995    -0.14800
C163        C  0.38307179  0.02983173  0.81078376     0.35900
C164        C  0.38492009  0.99589491  0.79442616    -0.26100
C165        C  0.35972876  0.98315832  0.76565594    -0.15400
C166        C  0.33096051  0.00478126  0.75475449     0.37000
N167        N  0.30442667  0.99244173  0.72590833    -0.89600
H168        H  0.30703032  0.05553759  0.76308047     0.18100
H169        H  0.40725792  0.97990369  0.80320663     0.18100
N170        N  0.40975730  0.04158427  0.83956596    -0.88700
H171        H  0.28540583  0.01170149  0.72074630     0.35400
H172        H  0.28081866  0.48348230  0.76048882     0.40500
H173        H  0.43411704  0.03963852  0.82457706     0.40200
H174        H  0.40999909  0.02479850  0.86538569     0.35000
C175        C  0.35595902  0.24772187  0.75440972    -0.26700
C176        C  0.38288190  0.23416534  0.78007554    -0.14800
C177        C  0.41352534  0.25467077  0.78675924     0.35900
C178        C  0.41637556  0.28765728  0.76776533    -0.26100
C179        C  0.38871308  0.30156980  0.74347213    -0.15400
C180        C  0.35832868  0.28103327  0.73643394     0.37000
N181        N  0.32980879  0.29400176  0.71103485    -0.89600
H182        H  0.33215865  0.23266092  0.74926565     0.18100
H183        H  0.43992663  0.30302922  0.77328137     0.18100
N184        N  0.44197987  0.24305418  0.81286490    -0.88700
H185        H  0.30903269  0.27610238  0.70989417     0.35400
H186        H  0.33905067  0.29634013  0.68025927     0.40500
H187        H  0.45057988  0.21884066  0.80169697     0.40200
H188        H  0.43284090  0.24024917  0.84360196     0.35000
C189        C  0.34916302  0.10403763  0.99708945    -0.26700
C190        C  0.36843346  0.13010333  0.97653073    -0.14800
C191        C  0.38885970  0.15355598  0.00064769     0.35900
C192        C  0.38822964  0.15171315  0.04468506    -0.26100
C193        C  0.36726586  0.12701367  0.06547183    -0.15400
C194        C  0.34821766  0.10225677  0.04128923     0.37000
N195        N  0.32655944  0.07654857  0.06139494    -0.89600
H196        H  0.33345464  0.08593530  0.97860222     0.18100
H197        H  0.40305555  0.17084092  0.06271274     0.18100
N198        N  0.40854398  0.18071309  0.98075490    -0.88700
H199        H  0.31545966  0.05961599  0.03911075     0.35400
H200        H  0.30552110  0.08966178  0.07545439     0.40500
H201        H  0.43488867  0.17824812  0.98988917     0.40200
H202        H  0.39931049  0.20470143  0.99193512     0.35000
C203        C  0.09226815  0.14049442  0.50387624    -0.26700
C204        C  0.11335151  0.11611029  0.48262326    -0.14800
C205        C  0.13602156  0.09450796  0.50634620     0.35900
C206        C  0.13679477  0.09727473  0.55039796    -0.26100
C207        C  0.11427648  0.12022595  0.57168432    -0.15400
C208        C  0.09209422  0.14229779  0.54806817     0.37000
N209        N  0.06893043  0.16621159  0.56879926    -0.89600
H210        H  0.07453400  0.15712130  0.48626243     0.18100
H211        H  0.15369100  0.07986602  0.56809555     0.18100
N212        N  0.15777787  0.06909856  0.48600694    -0.88700
H213        H  0.04313521  0.16034929  0.55947809     0.35400
H214        H  0.07483593  0.19136002  0.55840826     0.40500
H215        H  0.15113899  0.04449583  0.49770848     0.40200
H216        H  0.18394953  0.07421798  0.49422697     0.35000
C217        C  0.24468315  0.14314906  0.27927309    -0.26700
C218        C  0.26256394  0.11340385  0.26468328    -0.14800
C219        C  0.24589866  0.08071504  0.26797269     0.35900
C220        C  0.21209460  0.07833787  0.28610589    -0.26100
C221        C  0.19406119  0.10823260  0.30052199    -0.15400
C222        C  0.21091345  0.14105641  0.29707790     0.37000
N223        N  0.19385509  0.17231854  0.31156182    -0.89600
H224        H  0.25692335  0.16854523  0.27609462     0.18100
H225        H  0.19978251  0.05292617  0.28850323     0.18100
N226        N  0.26325160  0.04985887  0.25337481    -0.88700
H227        H  0.20905901  0.19433494  0.30483094     0.35400
H228        H  0.19239518  0.17094449  0.34434600     0.40500
H229        H  0.24713257  0.03798638  0.23069881     0.40200
H230        H  0.26566643  0.03274540  0.27873109     0.35000
C231        C  0.45745405  0.16384561  0.27561765    -0.26700
C232        C  0.44635219  0.13902255  0.24561634    -0.14800
C233        C  0.47048164  0.11342060  0.23228705     0.35900
C234        C  0.50413859  0.11174189  0.25062213    -0.26100
C235        C  0.51469735  0.13509027  0.28257319    -0.15400
C236        C  0.49126469  0.16209046  0.29440843     0.37000
N237        N  0.00328379  0.18742962  0.31648117    -0.89600
H238        H  0.43930129  0.18406000  0.28538836     0.18100
H239        H  0.52165532  0.09103676  0.24066871     0.18100
N240        N  0.46103987  0.08906138  0.19981346    -0.88700
H241        H  0.98486775  0.18967431  0.34067356     0.35400
H242        H  0.00391161  0.21110651  0.30033444     0.40500
H243        H  0.46354552  0.06389035  0.21193868     0.40200
H244        H  0.47902924  0.09171535  0.17523546     0.35000
C245        C  0.36077382  0.40721842  0.49627130    -0.26700
C246        C  0.37839495  0.38050222  0.47455669    -0.14800
C247        C  0.39317341  0.35275019  0.49765880     0.35900
C248        C  0.39208785  0.35347389  0.54187122    -0.26100
C249        C  0.37600898  0.38119446  0.56348231    -0.15400
C250        C  0.35946024  0.40780268  0.54029207     0.37000
N251        N  0.34325044  0.43672077  0.56128084    -0.89600
H252        H  0.34901016  0.42863296  0.47909694     0.18100
H253        H  0.40492495  0.33286865  0.55939466     0.18100
N254        N  0.41062419  0.32459901  0.47662655    -0.88700
H255        H  0.31701083  0.43805707  0.55135297     0.35400
H256        H  0.35594512  0.45956758  0.55178584     0.40500
H257        H  0.39826437  0.30133407  0.48524814     0.40200
H258        H  0.43664362  0.32372021  0.48742692     0.35000
C259        C  0.00602751  0.46319737  0.36048588    -0.26700
C260        C  0.47180456  0.47099643  0.35726641    -0.14800
C261        C  0.46636237  0.00449994  0.38271485     0.35900
C262        C  0.49392147  0.02879555  0.38414804    -0.26100
C263        C  0.02575711  0.01705624  0.37162849    -0.15400
C264        C  0.03419962  0.48693967  0.36032979     0.37000
N265        N  0.06944357  0.47491663  0.35278012    -0.89600
H266        H  0.01122182  0.43573786  0.35516845     0.18100
H267        H  0.48814655  0.05528334  0.39394364     0.18100
N268        N  0.43163815  0.01451368  0.39524089    -0.88700
H269        H  0.06967070  0.44801556  0.34720880     0.35400
H270        H  0.08451078  0.97718498  0.38744440     0.40500
H271        H  0.42470498  0.53754305  0.36658749     0.40200
H272        H  0.43295835  0.02357237  0.42630119     0.35000
C273        C  0.15103174  0.39089492  0.00350725    -0.26700
C274        C  0.12757925  0.37033963  0.97961279    -0.14800
C275        C  0.10172338  0.35062596  0.00075797     0.35900
C276        C  0.10275371  0.34858459  0.04497479    -0.26100
C277        C  0.12765699  0.36741664  0.06876077    -0.15400
C278        C  0.15091994  0.39021303  0.04780397     0.37000
N279        N  0.17529668  0.41154705  0.07126763    -0.89600
H280        H  0.17032580  0.40681548  0.98751227     0.18100
H281        H  0.08422111  0.33181082  0.06098578     0.18100
N282        N  0.07539173  0.33164447  0.97741316    -0.88700
H283        H  0.18954748  0.42770594  0.05110468     0.35400
H284        H  0.19360759  0.39495476  0.08540821     0.40500
H285        H  0.05919165  0.34999256  0.96265306     0.40200
H286        H  0.05918371  0.31757214  0.99769138     0.35000
C287        C  0.25045145  0.27671672  0.16602304    -0.26700
C288        C  0.21575059  0.26518055  0.17280903    -0.14800
C289        C  0.20914267  0.22928446  0.17724043     0.35900
C290        C  0.23727094  0.20572030  0.17568811    -0.26100
C291        C  0.27205284  0.21747446  0.17067164    -0.15400
C292        C  0.27871781  0.25321089  0.16513292     0.37000
N293        N  0.31407553  0.26546321  0.15886888    -0.89600
H294        H  0.25575522  0.30433137  0.16263380     0.18100
H295        H  0.23200238  0.17818527  0.18013661     0.18100
N296        N  0.17409047  0.21664179  0.18362872    -0.88700
H297        H  0.31445956  0.29257615  0.15558991     0.35400
H298        H  0.32293813  0.25501559  0.13038028     0.40500
H299        H  0.17369722  0.20297069  0.21200132     0.40200
H300        H  0.16809569  0.19906703  0.15936308     0.35000
C301        C  0.01929881  0.36792873  0.22601147    -0.26700
C302        C  0.04316952  0.34515913  0.24535327    -0.14800
C303        C  0.03173759  0.32533787  0.28018700     0.35900
C304        C  0.99775998  0.33057271  0.29644480    -0.26100
C305        C  0.97448785  0.35489854  0.27833421    -0.15400
C306        C  0.98518366  0.37264862  0.24170058     0.37000
N307        N  0.46919316  0.41670353  0.23166802    -0.89600
H308        H  0.02735520  0.38266541  0.19867926     0.18100
H309        H  0.99018130  0.31666678  0.32458150     0.18100
N310        N  0.05454336  0.30113784  0.30099383    -0.88700
H311        H  0.46739924  0.41619912  0.19885156     0.35400
H312        H  0.48220537  0.43965759  0.24062186     0.40500
H313        H  0.07726145  0.31439953  0.31069019     0.40200
H314        H  0.06163984  0.28173421  0.27945999     0.35000
C315        C  0.24364547  0.40800156  0.26101585    -0.26700
C316        C  0.22494673  0.37738150  0.27061108    -0.14800
C317        C  0.24093231  0.35266534  0.29746053     0.35900
C318        C  0.27554753  0.35782389  0.31170748    -0.26100
C319        C  0.29483466  0.38760516  0.30069306    -0.15400
C320        C  0.27825560  0.41358269  0.27611234     0.37000
N321        N  0.29672598  0.44509498  0.26568005    -0.89600
H322        H  0.23166579  0.42717783  0.24054526     0.18100
H323        H  0.28747908  0.33808821  0.33146396     0.18100
N324        N  0.22263549  0.32159239  0.30945120    -0.88700
H325        H  0.28052122  0.46178233  0.24833286     0.35400
H326        H  0.31761559  0.43826303  0.24602630     0.40500
H327        H  0.22147026  0.32097200  0.34230691     0.40200
H328        H  0.23729109  0.30009644  0.29934132     0.35000
In329      In  0.15071525  0.84694728  0.19080125     1.36900
C330        C  0.19542168  0.79647541  0.17239882     0.77200
O331        O  0.12978950  0.83394766  0.12729470    -0.61200
O332        O  0.14859690  0.88560556  0.13785282    -0.52100
C333        C  0.08662271  0.84770847  0.22469563     0.69900
O334        O  0.10414800  0.82000435  0.22004301    -0.47000
C335        C  0.19782521  0.87081604  0.24565884     0.74600
O336        O  0.16633744  0.79041683  0.19030099    -0.58900
O337        O  0.18943758  0.88797981  0.21321910    -0.49000
O338        O  0.20014083  0.82780228  0.16214324    -0.55300
C339        C  0.13648448  0.86346026  0.11185296     0.84800
O340        O  0.10254442  0.87501295  0.21327373    -0.57200
O341        O  0.17795909  0.84521502  0.25296480    -0.60500
In342      In  0.40156662  0.89205386  0.35245977     1.36900
C343        C  0.44563857  0.94365725  0.36641498     0.77200
O344        O  0.38014096  0.90853256  0.41425247    -0.61200
O345        O  0.40220985  0.85774856  0.41015398    -0.52100
C346        C  0.33710462  0.88761110  0.31888272     0.69900
O347        O  0.35351211  0.91609542  0.32308277    -0.47000
C348        C  0.44831086  0.86758761  0.29740411     0.74600
O349        O  0.41543644  0.94910414  0.35063550    -0.58900
O350        O  0.43979301  0.85060201  0.32994108    -0.49000
O351        O  0.45174533  0.91266477  0.37711344    -0.55300
C352        C  0.38842150  0.88095296  0.43330097     0.84800
O353        O  0.35443045  0.86116941  0.33058233    -0.57200
O354        O  0.42904152  0.89374893  0.29045594    -0.60500
In355      In  0.10023735  0.60096565  0.35368519     1.36900
C356        C  0.05553974  0.54926558  0.36527852     0.77200
O357        O  0.12232321  0.58436467  0.41553024    -0.61200
O358        O  0.10161901  0.63567115  0.41124517    -0.52100
C359        C  0.16397692  0.60727881  0.31840849     0.69900
O360        O  0.14926906  0.57804677  0.32386734    -0.47000
C361        C  0.05150025  0.62645401  0.30204821     0.74600
O362        O  0.08460612  0.54475065  0.34656306    -0.58900
O363        O  0.06113207  0.64258674  0.33504141    -0.49000
O364        O  0.05118296  0.57935186  0.38049724    -0.55300
C365        C  0.11530232  0.61250910  0.43441276     0.84800
O366        O  0.14534915  0.63292583  0.32969022    -0.57200
O367        O  0.07066169  0.60069021  0.29276900    -0.60500
In368      In  0.35079063  0.64543827  0.18913176     1.36900
C369        C  0.30720350  0.69584648  0.16852096     0.77200
O370        O  0.37595301  0.65650214  0.12756637    -0.61200
O371        O  0.34800821  0.60866395  0.13382329    -0.52100
C372        C  0.41385354  0.64171809  0.22627755     0.69900
O373        O  0.39736797  0.67014188  0.22231988    -0.47000
C374        C  0.30241247  0.62404416  0.24326341     0.74600
O375        O  0.33692531  0.70243678  0.18515993    -0.58900
O376        O  0.31394643  0.60409092  0.21458566    -0.49000
O377        O  0.30175581  0.66423051  0.15975878    -0.55300
C378        C  0.36444410  0.62923277  0.10982139     0.84800
O379        O  0.39728054  0.61526448  0.21285593    -0.57200
O380        O  0.31944443  0.65211419  0.24761630    -0.60500
In381      In  0.34911094  0.64905242  0.84954487     1.36900
C382        C  0.29350520  0.68936150  0.85800507     0.77200
O383        O  0.33417956  0.62525638  0.91054430    -0.61200
O384        O  0.38520346  0.64785967  0.90597161    -0.52100
C385        C  0.35429445  0.58593554  0.81458467     0.69900
O386        O  0.32503720  0.59984711  0.82294111    -0.47000
C387        C  0.37691934  0.70025754  0.80406531     0.74600
O388        O  0.29588555  0.66749521  0.82829105    -0.58900
O389        O  0.38883665  0.69246426  0.84000343    -0.49000
O390        O  0.31758214  0.68768055  0.88516770    -0.55300
C391        C  0.36264576  0.63303279  0.92908785     0.84800
O392        O  0.38063525  0.60503493  0.82272381    -0.57200
O393        O  0.35506080  0.67852025  0.78954602    -0.60500
In394      In  0.39553824  0.90060569  0.69473281     1.36900
C395        C  0.44827291  0.94426257  0.68284083     0.77200
O396        O  0.41149066  0.87535358  0.63425217    -0.61200
O397        O  0.36159146  0.90044068  0.63690647    -0.52100
C398        C  0.39049010  0.83786217  0.73010161     0.69900
O399        O  0.41952206  0.85347700  0.72558680    -0.47000
C400        C  0.36761307  0.94970547  0.74355028     0.74600
O401        O  0.45151986  0.91788509  0.70638849    -0.58900
O402        O  0.35272548  0.93985595  0.70982224    -0.49000
O403        O  0.41967632  0.94565299  0.66289463    -0.55300
C404        C  0.38420582  0.88486480  0.61456547     0.84800
O405        O  0.36396558  0.85517350  0.71818572    -0.57200
O406        O  0.39298020  0.93066205  0.75478987    -0.60500
In407      In  0.15084733  0.85459798  0.85111725     1.36900
C408        C  0.20332032  0.80962155  0.85750679     0.77200
O409        O  0.16659976  0.87438174  0.91466472    -0.61200
O410        O  0.11391445  0.85655267  0.90595965    -0.52100
C411        C  0.15193861  0.91942232  0.81944631     0.69900
O412        O  0.17948367  0.90145475  0.82419765    -0.47000
C413        C  0.11934907  0.80613366  0.80313666     0.74600
O414        O  0.20238411  0.83255549  0.82917683    -0.58900
O415        O  0.10865569  0.81304149  0.83980737    -0.49000
O416        O  0.17995392  0.81280813  0.88511714    -0.55300
C417        C  0.13710884  0.86802602  0.93126481     0.84800
O418        O  0.12396671  0.90389045  0.82986357    -0.57200
O419        O  0.14114357  0.82801284  0.78948041    -0.60500
In420      In  0.10734429  0.60301140  0.69669197     1.36900
C421        C  0.05820906  0.55544585  0.68418655     0.77200
O422        O  0.08974370  0.62327770  0.63424877    -0.61200
O423        O  0.14223835  0.60446760  0.63947679    -0.52100
C424        C  0.10653562  0.66677649  0.73180740     0.69900
O425        O  0.07987250  0.64706788  0.73095277    -0.47000
C426        C  0.13539843  0.55760803  0.74986864     0.74600
O427        O  0.05100343  0.58533246  0.69898614    -0.58900
O428        O  0.15102839  0.56610149  0.71632638    -0.49000
O429        O  0.08966787  0.55136907  0.67314965    -0.55300
C430        C  0.11828772  0.61651698  0.61580023     0.84800
O431        O  0.13384744  0.65320074  0.71601750    -0.57200
O432        O  0.11002063  0.57726865  0.75923127    -0.60500
C433        C  0.13083836  0.98051306  0.82502857    -0.26700
C434        C  0.15193932  0.95605576  0.80412301    -0.14800
C435        C  0.17076482  0.96682787  0.76812592     0.35900
C436        C  0.16641160  0.00091497  0.75262551    -0.26100
C437        C  0.14368638  0.02491895  0.77233109    -0.15400
C438        C  0.12670308  0.01462860  0.80977182     0.37000
N439        N  0.08795515  0.53155480  0.81463072    -0.89600
H440        H  0.11671866  0.97284715  0.85305436     0.18100
H441        H  0.17954084  0.00802001  0.72372609     0.18100
N442        N  0.19285490  0.94321694  0.74532132    -0.88700
H443        H  0.08847921  0.53344587  0.84742987     0.35400
H444        H  0.06493588  0.51835187  0.80575840     0.40500
H445        H  0.17778523  0.92158982  0.73622681     0.40200
H446        H  0.21295612  0.93481127  0.76539638     0.35000
C447        C  0.08651460  0.74915279  0.79678436    -0.26700
C448        C  0.11114228  0.77283726  0.78025706    -0.14800
C449        C  0.13189583  0.76195665  0.74565494     0.35900
C450        C  0.12970167  0.72732908  0.73102194    -0.26100
C451        C  0.10609380  0.70331575  0.74838857    -0.15400
C452        C  0.08321249  0.71498029  0.78065639     0.37000
N453        N  0.05723912  0.69252814  0.79866287    -0.89600
H454        H  0.07025208  0.75693165  0.82310673     0.18100
H455        H  0.14658118  0.71904932  0.70549088     0.18100
N456        N  0.15615937  0.78566838  0.72621177    -0.88700
H457        H  0.06979708  0.67032274  0.81029375     0.35400
H458        H  0.03950343  0.68504244  0.77500544     0.40500
H459        H  0.14126466  0.80507064  0.71149481     0.40200
H460        H  0.17039163  0.77319781  0.70246237     0.35000
C461        C  0.01272967  0.96650539  0.67967568    -0.26700
C462        C  0.47470586  0.97246617  0.68063564    -0.14800
C463        C  0.46362975  0.50792436  0.66415776     0.35900
C464        C  0.48906334  0.53426338  0.66559683    -0.26100
C465        C  0.03236514  0.52694409  0.68113860    -0.15400
C466        C  0.03817636  0.99311825  0.68147664     0.37000
N467        N  0.07500088  0.98439425  0.68228478    -0.89600
H468        H  0.02091695  0.93944304  0.67871150     0.18100
H469        H  0.48111654  0.56105905  0.66045138     0.18100
N470        N  0.42786734  0.51810378  0.65667775    -0.88700
H471        H  0.07849143  0.95739219  0.67994795     0.35400
H472        H  0.08501064  0.99183007  0.71167947     0.40500
H473        H  0.41246811  0.51014016  0.68207469     0.40200
H474        H  0.41889250  0.50609642  0.62906676     0.35000
C475        C  0.26049760  0.73467821  0.82031688    -0.26700
C476        C  0.26754174  0.71769877  0.85838308    -0.14800
C477        C  0.25375908  0.73136203  0.89617864     0.35900
C478        C  0.23361796  0.76178422  0.89512910    -0.26100
C479        C  0.22762023  0.77961834  0.85727754    -0.15400
C480        C  0.24107437  0.76577962  0.81933005     0.37000
N481        N  0.23433225  0.78272555  0.77985758    -0.89600
H482        H  0.27155011  0.72447953  0.79139474     0.18100
H483        H  0.22266022  0.77164487  0.92426282     0.18100
N484        N  0.25907949  0.71456525  0.93588051    -0.88700
H485        H  0.24422756  0.76791309  0.75486912     0.35400
H486        H  0.24848255  0.80612037  0.77996169     0.40500
H487        H  0.28584522  0.71507559  0.94345463     0.40200
H488        H  0.25082903  0.68860496  0.93316371     0.35000
C489        C  0.32846325  0.53377792  0.77750390    -0.26700
C490        C  0.35749511  0.54997289  0.79729937    -0.14800
C491        C  0.38930096  0.53129224  0.80081231     0.35900
C492        C  0.39183596  0.49759864  0.78391533    -0.26100
C493        C  0.36337302  0.48176398  0.76279193    -0.15400
C494        C  0.33126666  0.50005682  0.75985256     0.37000
N495        N  0.30153676  0.48463858  0.73901265    -0.89600
H496        H  0.30368826  0.54759753  0.77488398     0.18100
H497        H  0.41690031  0.48424520  0.78618156     0.18100
N498        N  0.41924307  0.54628258  0.82173162    -0.88700
H499        H  0.29391800  0.50110483  0.71448048     0.35400
H500        H  0.29150620  0.97160428  0.74022305     0.40500
H501        H  0.44010432  0.54690773  0.80042555     0.40200
H502        H  0.42638032  0.52992196  0.84656821     0.35000
C503        C  0.35827129  0.74589119  0.75372324    -0.26700
C504        C  0.38381369  0.73402135  0.78251541    -0.14800
C505        C  0.41221744  0.75646628  0.79300051     0.35900
C506        C  0.41437631  0.78964847  0.77462414    -0.26100
C507        C  0.38796266  0.80194162  0.74733337    -0.15400
C508        C  0.35967358  0.77961031  0.73660264     0.37000
N509        N  0.33228292  0.79122172  0.70859342    -0.89600
H510        H  0.33607289  0.72929422  0.74579506     0.18100
H511        H  0.43631261  0.80645453  0.78296980     0.18100
N512        N  0.43911238  0.74658759  0.82231825    -0.88700
H513        H  0.31293980  0.77199529  0.70485772     0.35400
H514        H  0.34354158  0.79484259  0.67900735     0.40500
H515        H  0.45012394  0.72303911  0.81229333     0.40200
H516        H  0.42772884  0.74311797  0.85187369     0.35000
C517        C  0.34206235  0.60741408  0.99643457    -0.26700
C518        C  0.36754397  0.62695551  0.97486408    -0.14800
C519        C  0.39480351  0.64311806  0.99817942     0.35900
C520        C  0.39460758  0.64157259  0.04230970    -0.26100
C521        C  0.36786631  0.62386784  0.06386956    -0.15400
C522        C  0.34201724  0.60568852  0.04052726     0.37000
N523        N  0.31442357  0.58717043  0.06136933    -0.89600
H524        H  0.32108896  0.59449169  0.97912861     0.18100
H525        H  0.41478686  0.65549602  0.05984785     0.18100
N526        N  0.42191154  0.66240503  0.97747736    -0.88700
H527        H  0.31502844  0.56122567  0.05110431     0.35400
H528        H  0.29034815  0.59792695  0.05204982     0.40500
H529        H  0.44617643  0.65160045  0.98595290     0.40200
H530        H  0.42127096  0.68809561  0.98864995     0.35000
C531        C  0.10189658  0.64283305  0.50215022    -0.26700
C532        C  0.12078427  0.61696724  0.48047349    -0.14800
C533        C  0.14217060  0.59380871  0.50371461     0.35900
C534        C  0.14290251  0.59575861  0.54784382    -0.26100
C535        C  0.12210729  0.62000040  0.56958142    -0.15400
C536        C  0.10218026  0.64448439  0.54644783     0.37000
N537        N  0.08178274  0.67049500  0.56802821    -0.89600
H538        H  0.08563237  0.66089967  0.48460495     0.18100
H539        H  0.15839144  0.57691129  0.56521152     0.18100
N540        N  0.16269689  0.56773246  0.48276219    -0.88700
H541        H  0.06841390  0.68629723  0.54651688     0.35400
H542        H  0.09936854  0.68670379  0.58433049     0.40500
H543        H  0.15481488  0.54328343  0.49376415     0.40200
H544        H  0.18906987  0.57143286  0.49119609     0.35000
C545        C  0.25043741  0.64723550  0.28096414    -0.26700
C546        C  0.26898681  0.61793897  0.26634894    -0.14800
C547        C  0.25317963  0.58480783  0.26980879     0.35900
C548        C  0.21919050  0.58166780  0.28723757    -0.26100
C549        C  0.20021740  0.61122699  0.30079095    -0.15400
C550        C  0.21645331  0.64429637  0.29766248     0.37000
N551        N  0.19849147  0.67526048  0.31090463    -0.89600
H552        H  0.26179947  0.67305143  0.27797228     0.18100
H553        H  0.20746025  0.55598854  0.28962358     0.18100
N554        N  0.27147730  0.55431374  0.25574314    -0.88700
H555        H  0.19660270  0.69202173  0.28513283     0.35400
H556        H  0.21382213  0.68756874  0.33400754     0.40500
H557        H  0.25595985  0.54196144  0.23285597     0.40200
H558        H  0.27400331  0.53736587  0.28124998     0.35000
C559        C  0.46144329  0.66411256  0.27445937    -0.26700
C560        C  0.44998675  0.63956597  0.24432541    -0.14800
C561        C  0.47345931  0.61321674  0.23139116     0.35900
C562        C  0.50735439  0.61148366  0.24895890    -0.26100
C563        C  0.51845038  0.63495414  0.28046866    -0.15400
C564        C  0.49514143  0.66167513  0.29311587     0.37000
N565        N  0.00703578  0.68795294  0.31919477    -0.89600
H566        H  0.44378537  0.68464710  0.28457724     0.18100
H567        H  0.52451440  0.59047102  0.23904181     0.18100
N568        N  0.46306780  0.58804424  0.20025586    -0.88700
H569        H  0.98718715  0.70634245  0.32421615     0.35400
H570        H  0.02811476  0.70137488  0.30573766     0.40500
H571        H  0.46533805  0.56321512  0.21348821     0.40200
H572        H  0.48066440  0.58959433  0.17517114     0.35000
C573        C  0.36248116  0.90245609  0.50013984    -0.26700
C574        C  0.38355654  0.87770783  0.47942909    -0.14800
C575        C  0.40189491  0.85285073  0.50365088     0.35900
C576        C  0.40055131  0.85456103  0.54782744    -0.26100
C577        C  0.38061364  0.88028294  0.56843565    -0.15400
C578        C  0.36066543  0.90380680  0.54415258     0.37000
N579        N  0.33983007  0.93026666  0.56394326    -0.89600
H580        H  0.34794299  0.92161610  0.48212063     0.18100
H581        H  0.41590536  0.83618906  0.56608158     0.18100
N582        N  0.42295009  0.82665587  0.48374127    -0.88700
H583        H  0.31381780  0.92731799  0.55359068     0.35400
H584        H  0.34889081  0.95458381  0.55388806     0.40500
H585        H  0.41372837  0.80225001  0.49329907     0.40200
H586        H  0.44884286  0.82943026  0.49455452     0.35000
C587        C  0.00769905  0.95642857  0.36700526    -0.26700
C588        C  0.47326403  0.97027515  0.36946038    -0.14800
C589        C  0.46638456  0.50520357  0.37144060     0.35900
C590        C  0.49485094  0.52844407  0.37315387    -0.26100
C591        C  0.02742672  0.52264814  0.36721165    -0.15400
C592        C  0.03456262  0.98159154  0.36642875     0.37000
N593        N  0.07050176  0.97127774  0.35993213    -0.89600
H594        H  0.01435134  0.92920375  0.36233144     0.18100
H595        H  0.49023151  0.55481798  0.38420276     0.18100
N596        N  0.43220984  0.51618716  0.38488087    -0.88700
H597        H  0.07227340  0.94427186  0.35566631     0.35400
H598        H  0.08401078  0.47915103  0.38031990     0.40500
H599        H  0.42359495  0.03523247  0.37623438     0.40200
H600        H  0.43421871  0.52456751  0.41613656     0.35000
C601        C  0.15377692  0.89400033  0.00042714    -0.26700
C602        C  0.13156759  0.87161882  0.97725781    -0.14800
C603        C  0.10802271  0.84964082  0.99897027     0.35900
C604        C  0.10873096  0.84913880  0.04316277    -0.26100
C605        C  0.13234374  0.87004542  0.06624780    -0.15400
C606        C  0.15461831  0.89333103  0.04467643     0.37000
N607        N  0.17949413  0.91464138  0.06742666    -0.89600
H608        H  0.17188308  0.91085292  0.98385726     0.18100
H609        H  0.09162482  0.83125499  0.05969884     0.18100
N610        N  0.08522547  0.82615250  0.97625888    -0.88700
H611        H  0.19340188  0.93069414  0.04686469     0.35400
H612        H  0.19805735  0.89798512  0.08111632     0.40500
H613        H  0.06639913  0.84124790  0.96074931     0.40200
H614        H  0.07133552  0.81017134  0.99701696     0.35000
C615        C  0.25782765  0.78127060  0.15868838    -0.26700
C616        C  0.22309332  0.76998000  0.16599882    -0.14800
C617        C  0.21627947  0.73411444  0.17027553     0.35900
C618        C  0.24414293  0.71039229  0.16820195    -0.26100
C619        C  0.27904350  0.72182877  0.16345886    -0.15400
C620        C  0.28600109  0.75756104  0.15799709     0.37000
N621        N  0.32151966  0.76966433  0.15267345    -0.89600
H622        H  0.26329864  0.80886385  0.15542596     0.18100
H623        H  0.23854722  0.68293094  0.17272819     0.18100
N624        N  0.18131638  0.72163274  0.17770164    -0.88700
H625        H  0.32208683  0.79680184  0.14957462     0.35400
H626        H  0.33080730  0.75929630  0.12435998     0.40500
H627        H  0.18141204  0.70802473  0.20614932     0.40200
H628        H  0.17474603  0.70404817  0.15368534     0.35000
C629        C  0.02781783  0.87558853  0.22763715    -0.26700
C630        C  0.05002647  0.84858155  0.24102058    -0.14800
C631        C  0.03683696  0.82389415  0.26999768     0.35900
C632        C  0.00269611  0.82770969  0.28609315    -0.26100
C633        C  0.98095778  0.85558248  0.27389430    -0.15400
C634        C  0.99361148  0.87923558  0.24346806     0.37000
N635        N  0.47569423  0.91639689  0.23485969    -0.89600
H636        H  0.03720968  0.89442514  0.20497324     0.18100
H637        H  0.99368821  0.80945029  0.30962680     0.18100
N638        N  0.05792515  0.79568174  0.28526399    -0.88700
H639        H  0.47281406  0.91750774  0.20216072     0.35400
H640        H  0.49058976  0.93796563  0.24456621     0.40500
H641        H  0.08096863  0.80595543  0.29856671     0.40200
H642        H  0.06452697  0.77957749  0.25992137     0.35000
C643        C  0.24879316  0.90900634  0.26608642    -0.26700
C644        C  0.23092146  0.87709212  0.26979181    -0.14800
C645        C  0.24766779  0.84942660  0.29123139     0.35900
C646        C  0.28194937  0.85369261  0.30705334    -0.26100
C647        C  0.30036384  0.88517092  0.30230917    -0.15400
C648        C  0.28321595  0.91346007  0.28227239     0.37000
N649        N  0.30091529  0.94635319  0.27750662    -0.89600
H650        H  0.23628158  0.93023750  0.24935504     0.18100
H651        H  0.29438651  0.83187079  0.32274088     0.18100
N652        N  0.23069429  0.81622280  0.29536907    -0.88700
H653        H  0.28427070  0.96459792  0.26333074     0.35400
H654        H  0.32181708  0.94246799  0.25675709     0.40500
H655        H  0.22927219  0.81029282  0.32737522     0.40200
H656        H  0.24639096  0.79737776  0.28076948     0.35000
In657      In  0.64595060  0.35391328  0.18845770     1.36900
C658        C  0.68960335  0.30188346  0.17346325     0.77200
O659        O  0.62267371  0.33916857  0.12622162    -0.61200
O660        O  0.64247318  0.39070192  0.13366914    -0.52100
C661        C  0.58327304  0.35641592  0.22570115     0.69900
O662        O  0.60005408  0.32837407  0.22036615    -0.47000
C663        C  0.69453276  0.37937945  0.24102262     0.74600
O664        O  0.66010282  0.29711744  0.19090778    -0.58900
O665        O  0.68581847  0.39525682  0.20772074    -0.49000
O666        O  0.69506104  0.33255979  0.16103989    -0.55300
C667        C  0.62914902  0.36809307  0.10916792     0.84800
O668        O  0.59934810  0.38336921  0.21339979    -0.57200
O669        O  0.67485069  0.35392568  0.24957855    -0.60500
In670      In  0.89674970  0.39721149  0.35256291     1.36900
C671        C  0.94281745  0.44828005  0.36398134     0.77200
O672        O  0.87441507  0.41316791  0.41446677    -0.61200
O673        O  0.89535086  0.36211452  0.40906672    -0.52100
C674        C  0.83307645  0.39562354  0.31634084     0.69900
O675        O  0.85115821  0.42321077  0.31908062    -0.47000
C676        C  0.94241355  0.36592482  0.30171143     0.74600
O677        O  0.91262528  0.45390538  0.34842849    -0.58900
O678        O  0.93318859  0.35257409  0.33624936    -0.49000
O679        O  0.94795146  0.41747905  0.37594491    -0.55300
C680        C  0.88176151  0.38493614  0.43271348     0.84800
O681        O  0.84827165  0.36889189  0.33075689    -0.57200
O682        O  0.92444364  0.39213352  0.29112715    -0.60500
In683      In  0.59717265  0.10121916  0.35765027     1.36900
C684        C  0.55519738  0.04724528  0.36960678     0.77200
O685        O  0.62115556  0.08809109  0.42002138    -0.61200
O686        O  0.59624664  0.13738032  0.41391015    -0.52100
C687        C  0.66117442  0.10519383  0.32279708     0.69900
O688        O  0.64598941  0.07653062  0.32988221    -0.47000
C689        C  0.54776161  0.12719643  0.30643558     0.74600
O690        O  0.58308386  0.04481073  0.34821216    -0.58900
O691        O  0.55726045  0.14278181  0.33979454    -0.49000
O692        O  0.55078355  0.07637116  0.38722638    -0.55300
C693        C  0.61173959  0.11599104  0.43785041     0.84800
O694        O  0.64280824  0.13164609  0.33185133    -0.57200
O695        O  0.56699440  0.10158188  0.29695032    -0.60500
In696      In  0.84386854  0.14603860  0.18944458     1.36900
C697        C  0.79888684  0.19764842  0.17716798     0.77200
O698        O  0.86450860  0.16372550  0.12761357    -0.61200
O699        O  0.84536866  0.11174716  0.13135924    -0.52100
C700        C  0.90831399  0.14114624  0.22365359     0.69900
O701        O  0.89174317  0.16967558  0.22149004    -0.47000
C702        C  0.79776326  0.11971327  0.24358764     0.74600
O703        O  0.82909748  0.20285154  0.19319990    -0.58900
O704        O  0.80515909  0.10405842  0.20955422    -0.49000
O705        O  0.79294961  0.16662260  0.16593271    -0.55300
C706        C  0.85796122  0.13558081  0.10839192     0.84800
O707        O  0.89127967  0.11522221  0.20955342    -0.57200
O708        O  0.81767852  0.14520840  0.25202588    -0.60500
In709      In  0.85307511  0.15357150  0.84675354     1.36900
C710        C  0.80029779  0.19783758  0.85528340     0.77200
O711        O  0.83612196  0.13159908  0.90800767    -0.61200
O712        O  0.88754365  0.15359420  0.90463248    -0.52100
C713        C  0.85559136  0.08869046  0.81511946     0.69900
O714        O  0.82701163  0.10476976  0.82088717    -0.47000
C715        C  0.88351564  0.20142461  0.79848345     0.74600
O716        O  0.79970391  0.17367850  0.82804479    -0.58900
O717        O  0.89700162  0.19184533  0.83299068    -0.49000
O718        O  0.82630064  0.19729155  0.87991268    -0.55300
C719        C  0.86413697  0.13964725  0.92731716     0.84800
O720        O  0.88274922  0.10651274  0.82366539    -0.57200
O721        O  0.85828027  0.18247496  0.78625224    -0.60500
In722      In  0.90228537  0.40213144  0.69234101     1.36900
C723        C  0.95503551  0.44536799  0.67955648     0.77200
O724        O  0.91544436  0.37947565  0.62954957    -0.61200
O725        O  0.86476810  0.40213754  0.63786792    -0.52100
C726        C  0.89977749  0.33849385  0.72533546     0.69900
O727        O  0.92810645  0.35552873  0.72239333    -0.47000
C728        C  0.87515160  0.45031450  0.74305307     0.74600
O729        O  0.95900746  0.41795273  0.70106377    -0.58900
O730        O  0.86005256  0.44125376  0.70922153    -0.49000
O731        O  0.92565990  0.44799586  0.66152017    -0.55300
C732        C  0.88643568  0.38803599  0.61299090     0.84800
O733        O  0.87267689  0.35479941  0.71331174    -0.57200
O734        O  0.90029000  0.43078285  0.75371970    -0.60500
In735      In  0.64694066  0.35403429  0.84942365     1.36900
C736        C  0.70259697  0.31263209  0.85495927     0.77200
O737        O  0.66182986  0.37210415  0.91381005    -0.61200
O738        O  0.60843702  0.35749644  0.90270885    -0.52100
C739        C  0.64588491  0.41893403  0.81819589     0.69900
O740        O  0.67394000  0.40185919  0.82327129    -0.47000
C741        C  0.61604429  0.30428901  0.80305591     0.74600
O742        O  0.69974858  0.33560776  0.82684058    -0.58900
O743        O  0.60765826  0.31011275  0.84077109    -0.49000
O744        O  0.67881239  0.31351087  0.88233924    -0.55300
C745        C  0.63147277  0.36764384  0.92896613     0.84800
O746        O  0.61838349  0.40247788  0.82824890    -0.57200
O747        O  0.63554361  0.32746494  0.78759963    -0.60500
In748      In  0.60088455  0.10122523  0.69908516     1.36900
C749        C  0.55089737  0.05480998  0.68648451     0.77200
O750        O  0.58168535  0.12103625  0.63737932    -0.61200
O751        O  0.63530276  0.10554140  0.64195087    -0.52100
C752        C  0.60157235  0.16483157  0.73387036     0.69900
O753        O  0.57478815  0.14528569  0.73442466    -0.47000
C754        C  0.63067973  0.05472480  0.74985751     0.74600
O755        O  0.54420548  0.08447899  0.70223899    -0.58900
O756        O  0.64471818  0.06358115  0.71548296    -0.49000
O757        O  0.58212517  0.05045109  0.67463387    -0.55300
C758        C  0.61059023  0.11666863  0.61873101     0.84800
O759        O  0.62838706  0.15103392  0.71730143    -0.57200
O760        O  0.60557599  0.07414190  0.76098361    -0.60500
C761        C  0.61963797  0.47830968  0.81883697    -0.26700
C762        C  0.64488452  0.45540131  0.80238906    -0.14800
C763        C  0.66726974  0.46745941  0.77007702     0.35900
C764        C  0.66293630  0.50127115  0.75396615    -0.26100
C765        C  0.63656013  0.52372594  0.76914698    -0.15400
C766        C  0.61529361  0.51211927  0.80272142     0.37000
N767        N  0.59266689  0.03158694  0.82482254    -0.89600
H768        H  0.60249731  0.46963617  0.84386268     0.18100
H769        H  0.67926013  0.50933678  0.72790605     0.18100
N770        N  0.69322291  0.44535896  0.75126290    -0.88700
H771        H  0.59842114  0.03270820  0.85700908     0.35400
H772        H  0.56775093  0.02034646  0.82107562     0.40500
H773        H  0.68073766  0.42287760  0.73980719     0.40200
H774        H  0.71146323  0.43823676  0.77435071     0.35000
C775        C  0.58441328  0.24695399  0.79959357    -0.26700
C776        C  0.60754904  0.27092388  0.78087898    -0.14800
C777        C  0.62666913  0.26016762  0.74504841     0.35900
C778        C  0.62369024  0.22572694  0.73016403    -0.26100
C779        C  0.60169178  0.20140171  0.74985178    -0.15400
C780        C  0.58110566  0.21260588  0.78439101     0.37000
N781        N  0.55793195  0.18936606  0.80598470    -0.89600
H782        H  0.56969390  0.25452333  0.82727233     0.18100
H783        H  0.63921709  0.21783016  0.70324505     0.18100
N784        N  0.65041662  0.28357391  0.72459136    -0.88700
H785        H  0.57243869  0.16782987  0.81624506     0.35400
H786        H  0.53848000  0.18087784  0.78494788     0.40500
H787        H  0.64265254  0.28567834  0.69311344     0.40200
H788        H  0.67557386  0.27254011  0.72535630     0.35000
C789        C  0.50898463  0.46506238  0.67963346    -0.26700
C790        C  0.98148838  0.47344851  0.67783051    -0.14800
C791        C  0.96606201  0.00987789  0.68134885     0.35900
C792        C  0.99128328  0.03624878  0.68384659    -0.26100
C793        C  0.52504537  0.02644766  0.68379148    -0.15400
C794        C  0.53452263  0.49154451  0.68097710     0.37000
N795        N  0.57044748  0.48318072  0.69126132    -0.89600
H796        H  0.51669184  0.43836413  0.68582877     0.18100
H797        H  0.98270363  0.06315906  0.68585115     0.18100
N798        N  0.92975112  0.01987153  0.68263915    -0.88700
H799        H  0.57353244  0.45628786  0.69521387     0.35400
H800        H  0.57615541  0.49466069  0.72039528     0.40500
H801        H  0.91774460  0.00725947  0.70785256     0.40200
H802        H  0.91751220  0.01222131  0.65457998     0.35000
C803        C  0.76615362  0.24280559  0.81797319    -0.26700
C804        C  0.77455685  0.22644637  0.85604067    -0.14800
C805        C  0.76073113  0.23975257  0.89398260     0.35900
C806        C  0.73808479  0.26844805  0.89292971    -0.26100
C807        C  0.72982283  0.28513003  0.85488917    -0.15400
C808        C  0.74437357  0.27238163  0.81697644     0.37000
N809        N  0.73612222  0.28864134  0.77748925    -0.89600
H810        H  0.77741827  0.23298890  0.78897928     0.18100
H811        H  0.72677408  0.27774029  0.92213698     0.18100
N812        N  0.76838421  0.22408128  0.93381896    -0.88700
H813        H  0.74733649  0.27476728  0.75254637     0.35400
H814        H  0.74809256  0.31320993  0.77757820     0.40500
H815        H  0.79537671  0.22621312  0.93981738     0.40200
H816        H  0.76165230  0.19766492  0.93216832     0.35000
C817        C  0.83014679  0.03824028  0.77424826    -0.26700
C818        C  0.85722757  0.05190374  0.79984495    -0.14800
C819        C  0.88596183  0.03029390  0.81012035     0.35900
C820        C  0.88808940  0.99648784  0.79318719    -0.26100
C821        C  0.86237366  0.98353291  0.76516496    -0.15400
C822        C  0.83261166  0.00447031  0.75634396     0.37000
N823        N  0.80552704  0.99187985  0.72841368    -0.89600
H824        H  0.80768254  0.05449014  0.76675874     0.18100
H825        H  0.91112519  0.98096470  0.80049109     0.18100
N826        N  0.91326636  0.04258220  0.83771934    -0.88700
H827        H  0.78575526  0.01058749  0.72478336     0.35400
H828        H  0.78665393  0.49144067  0.74906244     0.40500
H829        H  0.93712781  0.04136467  0.82154295     0.40200
H830        H  0.91484215  0.02562523  0.86332367     0.35000
C831        C  0.87085157  0.24489868  0.74275431    -0.26700
C832        C  0.89278263  0.23439487  0.77622375    -0.14800
C833        C  0.91915918  0.25796320  0.79061814     0.35900
C834        C  0.92206241  0.29116666  0.77237645    -0.26100
C835        C  0.89837687  0.30219362  0.74111930    -0.15400
C836        C  0.87319690  0.27842131  0.72551858     0.37000
N837        N  0.84989893  0.28817584  0.69200083    -0.89600
H838        H  0.85052937  0.22754399  0.73088175     0.18100
H839        H  0.94189846  0.30908953  0.78421915     0.18100
N840        N  0.94270320  0.24957525  0.82438784    -0.88700
H841        H  0.82403441  0.28548765  0.70261618     0.35400
H842        H  0.85352681  0.27069993  0.66705301     0.40500
H843        H  0.95585355  0.22646841  0.81683664     0.40200
H844        H  0.92810435  0.24598541  0.85179727     0.35000
C845        C  0.84650384  0.10977200  0.99319855    -0.26700
C846        C  0.86764643  0.13481868  0.97336615    -0.14800
C847        C  0.88808886  0.15764642  0.99831414     0.35900
C848        C  0.88595384  0.15600010  0.04233308    -0.26100
C849        C  0.86337824  0.13220428  0.06227500    -0.15400
C850        C  0.84388123  0.10835658  0.03732508     0.37000
N851        N  0.82010374  0.08404799  0.05653205    -0.89600
H852        H  0.83064281  0.09223846  0.97410413     0.18100
H853        H  0.90104686  0.17450281  0.06098546     0.18100
N854        N  0.90937601  0.18399167  0.97921235    -0.88700
H855        H  0.80840117  0.06794718  0.03377880     0.35400
H856        H  0.79970312  0.09845438  0.07009908     0.40500
H857        H  0.93528939  0.18066804  0.98960564     0.40200
H858        H  0.90063677  0.20834713  0.98983098     0.35000
C859        C  0.59065141  0.14126701  0.50534461    -0.26700
C860        C  0.61596770  0.12158622  0.48377163    -0.14800
C861        C  0.64222386  0.10411096  0.50705747     0.35900
C862        C  0.64134366  0.10465970  0.55122514    -0.26100
C863        C  0.61433160  0.12200534  0.57279318    -0.15400
C864        C  0.58939951  0.14136599  0.54950114     0.37000
N865        N  0.56226859  0.16058031  0.57043599    -0.89600
H866        H  0.57043454  0.15502814  0.48791207     0.18100
H867        H  0.66094991  0.09000427  0.56857681     0.18100
N868        N  0.66956869  0.08532804  0.48598467    -0.88700
H869        H  0.53792381  0.15119236  0.55980573     0.35400
H870        H  0.56436730  0.18672217  0.56157625     0.40500
H871        H  0.66847109  0.05932368  0.49562376     0.40200
H872        H  0.69376875  0.09567695  0.49577452     0.35000
C873        C  0.75141120  0.14043475  0.29231261    -0.26700
C874        C  0.76552438  0.11269582  0.26875555    -0.14800
C875        C  0.74615678  0.08138199  0.26566565     0.35900
C876        C  0.71260342  0.07899490  0.28436569    -0.26100
C877        C  0.69765139  0.10760560  0.30575989    -0.15400
C878        C  0.71790302  0.13831877  0.31072607     0.37000
N879        N  0.70436627  0.16747289  0.33420548    -0.89600
H880        H  0.76600230  0.16464989  0.29501153     0.18100
H881        H  0.69779869  0.05495140  0.28106585     0.18100
N882        N  0.76029956  0.05204388  0.24345903    -0.88700
H883        H  0.72216114  0.18830089  0.33403785     0.35400
H884        H  0.70210366  0.15966854  0.36554415     0.40500
H885        H  0.74271663  0.04533689  0.21934679     0.40200
H886        H  0.76167272  0.03106405  0.26432242     0.35000
C887        C  0.95797956  0.16428971  0.26841816    -0.26700
C888        C  0.94468609  0.13821268  0.24134059    -0.14800
C889        C  0.96629240  0.10930125  0.23198273     0.35900
C890        C  0.99964620  0.10622890  0.25093386    -0.26100
C891        C  0.01231556  0.13134838  0.27967507    -0.15400
C892        C  0.99128735  0.16094498  0.28789443     0.37000
N893        N  0.50134479  0.18700333  0.32618870    -0.89600
H894        H  0.94200027  0.18690853  0.27563626     0.18100
H895        H  0.01520015  0.08324563  0.24404435     0.18100
N896        N  0.95456276  0.08284309  0.20316189    -0.88700
H897        H  0.48087909  0.20462170  0.33184020     0.35400
H898        H  0.52228130  0.20157901  0.31429125     0.40500
H899        H  0.95458586  0.05898597  0.21894022     0.40200
H900        H  0.97274600  0.08123824  0.17864443     0.35000
C901        C  0.85850738  0.40652284  0.50079973    -0.26700
C902        C  0.87701346  0.38061910  0.47870119    -0.14800
C903        C  0.89439995  0.35411053  0.50151294     0.35900
C904        C  0.89606511  0.35637404  0.54566066    -0.26100
C905        C  0.87961735  0.38371855  0.56746656    -0.15400
C906        C  0.85966870  0.40844972  0.54489257     0.37000
N907        N  0.84242562  0.43665783  0.56648349    -0.89600
H908        H  0.84461972  0.42658988  0.48352428     0.18100
H909        H  0.91086740  0.33706825  0.56314031     0.18100
N910        N  0.91154038  0.32587085  0.47993128    -0.88700
H911        H  0.82835629  0.45214430  0.54528664     0.35400
H912        H  0.86198866  0.45264583  0.57956818     0.40500
H913        H  0.89192428  0.31099614  0.46514838     0.40200
H914        H  0.92403637  0.30932068  0.50135931     0.35000
C915        C  0.50546119  0.46057740  0.34417907    -0.26700
C916        C  0.97117132  0.47450169  0.36599276    -0.14800
C917        C  0.96355146  0.00139053  0.37701617     0.35900
C918        C  0.99034601  0.02649377  0.37768974    -0.26100
C919        C  0.52824002  0.01954797  0.37176987    -0.15400
C920        C  0.53378699  0.48407468  0.34469790     0.37000
N921        N  0.56759617  0.47297507  0.33011607    -0.89600
H922        H  0.50966551  0.43417388  0.33288630     0.18100
H923        H  0.98317221  0.05368170  0.38143370     0.18100
N924        N  0.92760293  0.01184914  0.38181338    -0.88700
H925        H  0.56481899  0.46464058  0.29888326     0.35400
H926        H  0.58630875  0.97652818  0.37230660     0.40500
H927        H  0.92396721  0.54058509  0.35318993     0.40200
H928        H  0.92530898  0.02500055  0.41054766     0.35000
C929        C  0.64500311  0.39666496  0.99700818    -0.26700
C930        C  0.62462375  0.37236033  0.97442602    -0.14800
C931        C  0.60169882  0.34998842  0.99646262     0.35900
C932        C  0.60183044  0.35065240  0.04076348    -0.26100
C933        C  0.62399537  0.37348756  0.06338656    -0.15400
C934        C  0.64469144  0.39761070  0.04110729     0.37000
N935        N  0.66718536  0.42166216  0.06302030    -0.89600
H936        H  0.66246475  0.41413464  0.98035765     0.18100
H937        H  0.58568402  0.33218275  0.05771712     0.18100
N938        N  0.58039523  0.32495292  0.97408428    -0.88700
H939        H  0.66041510  0.44689411  0.05366624     0.35400
H940        H  0.69311416  0.41696145  0.05372539     0.40500
H941        H  0.56137143  0.33881992  0.95721159     0.40200
H942        H  0.56663580  0.30916193  0.99511365     0.35000
C943        C  0.75252393  0.28521875  0.16986207    -0.26700
C944        C  0.71702412  0.27477374  0.17050977    -0.14800
C945        C  0.70878836  0.23904946  0.17145986     0.35900
C946        C  0.73601318  0.21443802  0.17245841    -0.26100
C947        C  0.77154031  0.22484528  0.17324207    -0.15400
C948        C  0.77990653  0.26063748  0.17151737     0.37000
N949        N  0.81600946  0.27192014  0.17166742    -0.89600
H950        H  0.75897783  0.31275671  0.16940357     0.18100
H951        H  0.72922307  0.18699801  0.17376425     0.18100
N952        N  0.67287471  0.22762016  0.17139743    -0.88700
H953        H  0.81755145  0.29914534  0.17091302     0.35400
H954        H  0.82749761  0.26285811  0.14388080     0.40500
H955        H  0.66881555  0.21275176  0.19841956     0.40200
H956        H  0.66899625  0.21141273  0.14522264     0.35000
C957        C  0.52489636  0.38498423  0.23014330    -0.26700
C958        C  0.54703817  0.35776694  0.24300819    -0.14800
C959        C  0.53374374  0.33259365  0.27131670     0.35900
C960        C  0.49912012  0.33542711  0.28613971    -0.26100
C961        C  0.47694784  0.36272136  0.27323939    -0.15400
C962        C  0.49022961  0.38767992  0.24475301     0.37000
N963        N  0.96190658  0.39638375  0.22083602    -0.89600
H964        H  0.53453478  0.40448452  0.20846446     0.18100
H965        H  0.48983418  0.31658073  0.30883577     0.18100
N966        N  0.55506507  0.30468603  0.28694678    -0.88700
H967        H  0.95872993  0.38794136  0.18972433     0.35400
H968        H  0.97389516  0.42094527  0.22041963     0.40500
H969        H  0.57777454  0.31529696  0.30068138     0.40200
H970        H  0.56221495  0.28863292  0.26177736     0.35000
C971        C  0.74920137  0.41499180  0.25323820    -0.26700
C972        C  0.72744991  0.38706048  0.26529962    -0.14800
C973        C  0.73997361  0.36371225  0.29638779     0.35900
C974        C  0.77444295  0.36728186  0.31206804    -0.26100
C975        C  0.79663706  0.39429995  0.29889838    -0.15400
C976        C  0.78349222  0.41910588  0.27002737     0.37000
N977        N  0.80518039  0.44777771  0.25693833    -0.89600
H978        H  0.73987592  0.43306991  0.22959709     0.18100
H979        H  0.78403147  0.34875448  0.33505769     0.18100
N980        N  0.71813275  0.33573645  0.31123216    -0.88700
H981        H  0.79138669  0.46388714  0.23615236     0.35400
H982        H  0.82632533  0.43743196  0.24009454     0.40500
H983        H  0.69720653  0.34698173  0.32765599     0.40200
H984        H  0.73176548  0.32025734  0.33284287     0.35000
In985      In  0.65013770  0.84830171  0.18610114     1.36900
C986        C  0.69640887  0.79959173  0.16727566     0.77200
O987        O  0.62780191  0.83461923  0.12349730    -0.61200
O988        O  0.64778210  0.88611068  0.13232690    -0.52100
C989        C  0.58620923  0.85012371  0.22139017     0.69900
O990        O  0.60296327  0.82205291  0.21554847    -0.47000
C991        C  0.69846424  0.87052074  0.24037258     0.74600
O992        O  0.66688419  0.79206181  0.18339708    -0.58900
O993        O  0.68897564  0.88902999  0.20939169    -0.49000
O994        O  0.70059902  0.83124563  0.15820893    -0.55300
C995        C  0.63461779  0.86379598  0.10725539     0.84800
O996        O  0.60300668  0.87718866  0.21080103    -0.57200
O997        O  0.67880823  0.84459287  0.24709624    -0.60500
In998      In  0.90116907  0.88719260  0.35183032     1.36900
C999        C  0.94512210  0.93888937  0.36749949     0.77200
O1000       O  0.87765610  0.90142709  0.41277175    -0.61200
O1001       O  0.90088448  0.85120751  0.40829272    -0.52100
C1002       C  0.83790395  0.88442696  0.31505747     0.69900
O1003       O  0.85385225  0.91275261  0.32232259    -0.47000
C1004       C  0.94826377  0.86295303  0.29799219     0.74600
O1005       O  0.91514064  0.94405584  0.35110144    -0.58900
O1006       O  0.93932452  0.84586610  0.33026102    -0.49000
O1007       O  0.95122568  0.90785560  0.37804253    -0.55300
C1008       C  0.88595282  0.87368416  0.43140779     0.84800
O1009       O  0.85500952  0.85751038  0.32557105    -0.57200
O1010       O  0.92926365  0.88921555  0.29067134    -0.60500
In1011     In  0.60090964  0.59805937  0.35193712     1.36900
C1012       C  0.55690955  0.54484376  0.35958918     0.77200
O1013       O  0.62116790  0.58271426  0.41516656    -0.61200
O1014       O  0.60472026  0.63519100  0.40720326    -0.52100
C1015       C  0.66546542  0.60127984  0.31826729     0.69900
O1016       O  0.65000098  0.57265483  0.32492184    -0.47000
C1017       C  0.55183318  0.62708074  0.30333521     0.74600
O1018       O  0.58446523  0.54265349  0.33753337    -0.58900
O1019       O  0.55945214  0.63922141  0.33927460    -0.49000
O1020       O  0.55408488  0.57285087  0.38011169    -0.55300
C1021       C  0.61658734  0.61224669  0.43195958     0.84800
O1022       O  0.64716381  0.62780047  0.32708065    -0.57200
O1023       O  0.57305683  0.60423424  0.29028123    -0.60500
In1024     In  0.85032363  0.64612871  0.18764637     1.36900
C1025       C  0.80810485  0.69876619  0.16951073     0.77200
O1026       O  0.87584040  0.66090659  0.12709243    -0.61200
O1027       O  0.85120240  0.61121194  0.13060949    -0.52100
C1028       C  0.91334408  0.64088321  0.22479077     0.69900
O1029       O  0.89653840  0.66927017  0.22296659    -0.47000
C1030       C  0.80179053  0.62021787  0.23964870     0.74600
O1031       O  0.83663039  0.70329782  0.18968889    -0.58900
O1032       O  0.81149411  0.60390634  0.20698444    -0.49000
O1033       O  0.80285478  0.66793819  0.15709915    -0.55300
C1034       C  0.86690121  0.63333768  0.10793523     0.84800
O1035       O  0.89702820  0.61505668  0.20931355    -0.57200
O1036       O  0.81994584  0.64702897  0.24767893    -0.60500
In1037     In  0.85353317  0.65260073  0.84737885     1.36900
C1038       C  0.79958349  0.69429368  0.86003386     0.77200
O1039       O  0.83849301  0.62994009  0.90938137    -0.61200
O1040       O  0.88969408  0.65172828  0.90361064    -0.52100
C1041       C  0.86006811  0.58952918  0.81254403     0.69900
O1042       O  0.83121463  0.60588221  0.81324840    -0.47000
C1043       C  0.87958798  0.70111035  0.79624385     0.74600
O1044       O  0.79518851  0.66407300  0.84458814    -0.58900
O1045       O  0.89450708  0.69292166  0.83044521    -0.49000
O1046       O  0.83044550  0.70135772  0.87180032    -0.55300
C1047       C  0.86724844  0.63750455  0.92728098     0.84800
O1048       O  0.88586373  0.60656783  0.82725936    -0.57200
O1049       O  0.85486656  0.68079007  0.78565832    -0.60500
In1050     In  0.89796071  0.90258928  0.69052403     1.36900
C1051       C  0.95068548  0.94613622  0.67969650     0.77200
O1052       O  0.91395956  0.87853765  0.62958301    -0.61200
O1053       O  0.86264783  0.90052814  0.63378892    -0.52100
C1054       C  0.89329318  0.83893148  0.72330651     0.69900
O1055       O  0.92223181  0.85480559  0.71921658    -0.47000
C1056       C  0.87043460  0.95079649  0.74144945     0.74600
O1057       O  0.95420491  0.91890473  0.70169785    -0.58900
O1058       O  0.85577806  0.94220827  0.70706789    -0.49000
O1059       O  0.92193062  0.94845355  0.66008294    -0.55300
C1060       C  0.88538346  0.88550913  0.61104760     0.84800
O1061       O  0.86659598  0.85661922  0.71287827    -0.57200
O1062       O  0.89560339  0.93119074  0.75194074    -0.60500
In1063     In  0.64569092  0.85010859  0.84712405     1.36900
C1064       C  0.69809856  0.80581020  0.85958518     0.77200
O1065       O  0.66001295  0.87281437  0.90926773    -0.61200
O1066       O  0.60972331  0.84894863  0.90316886    -0.52100
C1067       C  0.64491790  0.91440190  0.81466146     0.69900
O1068       O  0.67256225  0.89635962  0.81753726    -0.47000
C1069       C  0.61777356  0.80411242  0.79366482     0.74600
O1070       O  0.70207520  0.83427807  0.84022739    -0.58900
O1071       O  0.60135017  0.81436479  0.82596100    -0.49000
O1072       O  0.66819226  0.80196423  0.87585924    -0.55300
C1073       C  0.63179085  0.86398751  0.92709152     0.84800
O1074       O  0.61740671  0.89885668  0.82667818    -0.57200
O1075       O  0.64514500  0.82147318  0.78603884    -0.60500
In1076     In  0.60018966  0.60153240  0.69112359     1.36900
C1077       C  0.55030952  0.55505608  0.67647931     0.77200
O1078       O  0.58608922  0.62371546  0.62824259    -0.61200
O1079       O  0.63795798  0.60419152  0.63677963    -0.52100
C1080       C  0.60076519  0.66484837  0.72621250     0.69900
O1081       O  0.57287951  0.64713813  0.72215456    -0.47000
C1082       C  0.62757856  0.55587185  0.74499970     0.74600
O1083       O  0.54326218  0.58500641  0.69118856    -0.58900
O1084       O  0.64334009  0.56469306  0.71169588    -0.49000
O1085       O  0.58189918  0.55064281  0.66603896    -0.55300
C1086       C  0.61561911  0.61745232  0.61192271     0.84800
O1087       O  0.62832588  0.64915182  0.71459949    -0.57200
O1088       O  0.60103484  0.57437835  0.75330465    -0.60500
C1089       C  0.62056894  0.97439214  0.81845841    -0.26700
C1090       C  0.64461079  0.95123596  0.80008695    -0.14800
C1091       C  0.66742124  0.96392429  0.76852701     0.35900
C1092       C  0.66424311  0.99854747  0.75458306    -0.26100
C1093       C  0.63911444  0.02138522  0.77184687    -0.15400
C1094       C  0.61791104  0.00917834  0.80516068     0.37000
N1095       N  0.58818902  0.53395053  0.81958383    -0.89600
H1096       H  0.60343234  0.96538323  0.84331491     0.18100
H1097       H  0.68062449  0.00715405  0.72882952     0.18100
N1098       N  0.69288059  0.94191751  0.74861652    -0.88700
H1099       H  0.59293950  0.53716769  0.85178927     0.35400
H1100       H  0.56410358  0.52101346  0.81586805     0.40500
H1101       H  0.67989886  0.92018215  0.73594727     0.40200
H1102       H  0.71092319  0.93354808  0.77133318     0.35000
C1103       C  0.58099786  0.75034748  0.78418562    -0.26700
C1104       C  0.60879388  0.77153075  0.77014091    -0.14800
C1105       C  0.63153201  0.75827279  0.73873654     0.35900
C1106       C  0.62815466  0.72341450  0.72549243    -0.26100
C1107       C  0.60158105  0.70168105  0.74110026    -0.15400
C1108       C  0.57685115  0.71590994  0.76960192     0.37000
N1109       N  0.54823602  0.69572404  0.78570745    -0.89600
H1110       H  0.56316518  0.76006410  0.80800164     0.18100
H1111       H  0.64642187  0.71315966  0.70247819     0.18100
N1112       N  0.65868248  0.77983141  0.72114218    -0.88700
H1113       H  0.55845486  0.67337906  0.79993802     0.35400
H1114       H  0.53200223  0.68825175  0.76057779     0.40500
H1115       H  0.64626779  0.79988805  0.70455154     0.40200
H1116       H  0.67355720  0.76586298  0.69921881     0.35000
C1117       C  0.50946056  0.96545470  0.69292799    -0.26700
C1118       C  0.97679437  0.97451923  0.67925822    -0.14800
C1119       C  0.97130814  0.50893620  0.67426564     0.35900
C1120       C  0.99677842  0.53511200  0.67613726    -0.26100
C1121       C  0.52438094  0.52650976  0.67371360    -0.15400
C1122       C  0.53465305  0.99212802  0.69459503     0.37000
N1123       N  0.56960044  0.98459407  0.70911146    -0.89600
H1124       H  0.51702230  0.93928122  0.70196595     0.18100
H1125       H  0.98862126  0.56211901  0.67378089     0.18100
N1126       N  0.93525414  0.51949129  0.67052318    -0.88700
H1127       H  0.58028068  0.96545405  0.68948206     0.35400
H1128       H  0.56786986  0.97427360  0.73943387     0.40500
H1129       H  0.92115986  0.50957817  0.69594813     0.40200
H1130       H  0.92485088  0.50961392  0.64237086     0.35000
C1131       C  0.77918099  0.75126779  0.83628286    -0.26700
C1132       C  0.77249020  0.72142941  0.86013350    -0.14800
C1133       C  0.74190408  0.71956344  0.88471686     0.35900
C1134       C  0.71864903  0.74789780  0.88523929    -0.26100
C1135       C  0.72504839  0.77791468  0.86091854    -0.15400
C1136       C  0.75553429  0.77926531  0.83562042     0.37000
N1137       N  0.76220258  0.80855620  0.80870829    -0.89600
H1138       H  0.80284861  0.75242382  0.81740525     0.18100
H1139       H  0.69518876  0.74618501  0.90436527     0.18100
N1140       N  0.73425294  0.68962006  0.90983836    -0.88700
H1141       H  0.74317128  0.80808856  0.78481024     0.35400
H1142       H  0.78650755  0.80592263  0.79373760     0.40500
H1143       H  0.75523834  0.68577170  0.93070416     0.40200
H1144       H  0.73256564  0.66788126  0.88993715     0.35000
C1145       C  0.83569749  0.53846878  0.77241753    -0.26700
C1146       C  0.86308039  0.55303545  0.79677882    -0.14800
C1147       C  0.89237170  0.53199962  0.80691125     0.35900
C1148       C  0.89435977  0.49773897  0.79138551    -0.26100
C1149       C  0.86781976  0.48368705  0.76536443    -0.15400
C1150       C  0.83789011  0.50418005  0.75653843     0.37000
N1151       N  0.80973653  0.49043986  0.73130470    -0.89600
H1152       H  0.81265775  0.55393884  0.76499055     0.18100
H1153       H  0.91770130  0.48258005  0.79843377     0.18100
N1154       N  0.92026330  0.54516510  0.83304405    -0.88700
H1155       H  0.80643466  0.50668491  0.70527476     0.35400
H1156       H  0.79379485  0.97030770  0.74267423     0.40500
H1157       H  0.94374142  0.54356686  0.81612796     0.40200
H1158       H  0.92252736  0.52897045  0.85929522     0.35000
C1159       C  0.86027156  0.74698910  0.74611087    -0.26700
C1160       C  0.88671120  0.73421041  0.77315961    -0.14800
C1161       C  0.91664888  0.75545189  0.78094836     0.35900
C1162       C  0.91856099  0.78895839  0.76350218    -0.26100
C1163       C  0.89106278  0.80242893  0.73876179    -0.15400
C1164       C  0.86213185  0.78066964  0.72876870     0.37000
N1165       N  0.83473302  0.79273548  0.70105571    -0.89600
H1166       H  0.83727388  0.73109064  0.73953826     0.18100
H1167       H  0.94137345  0.80501582  0.77049227     0.18100
N1168       N  0.94554556  0.74396108  0.80642028    -0.88700
H1169       H  0.81516068  0.77375559  0.69738544     0.35400
H1170       H  0.84588744  0.79629670  0.67135835     0.40500
H1171       H  0.95459716  0.72015927  0.79448632     0.40200
H1172       H  0.93686811  0.74050373  0.83721855     0.35000
C1173       C  0.85220782  0.60703895  0.99386793    -0.26700
C1174       C  0.87283242  0.63187103  0.97292750    -0.14800
C1175       C  0.89550196  0.65349871  0.99671078     0.35900
C1176       C  0.89468958  0.65222794  0.04085711    -0.26100
C1177       C  0.87223346  0.62902723  0.06193505    -0.15400
C1178       C  0.85214395  0.60506936  0.03799053     0.37000
N1179       N  0.83041410  0.57969903  0.05821563    -0.89600
H1180       H  0.83517392  0.58972061  0.97596344     0.18100
H1181       H  0.91083241  0.67040684  0.05868871     0.18100
N1182       N  0.91804771  0.67808682  0.97634198    -0.88700
H1183       H  0.83819157  0.55496871  0.04781442     0.35400
H1184       H  0.80440616  0.58367809  0.04853542     0.40500
H1185       H  0.94397442  0.67286647  0.98556348     0.40200
H1186       H  0.91154855  0.70305220  0.98707413     0.35000
C1187       C  0.60400970  0.64514159  0.49823821    -0.26700
C1188       C  0.62260217  0.61848403  0.47757077    -0.14800
C1189       C  0.64377604  0.59576985  0.50161420     0.35900
C1190       C  0.64366415  0.59809701  0.54565207    -0.26100
C1191       C  0.62213915  0.62224679  0.56641680    -0.15400
C1192       C  0.60345083  0.64717805  0.54252750     0.37000
N1193       N  0.58318050  0.67373094  0.56331136    -0.89600
H1194       H  0.58822789  0.66313890  0.47997170     0.18100
H1195       H  0.65856609  0.57919097  0.56364308     0.18100
N1196       N  0.66465520  0.56951400  0.48152427    -0.88700
H1197       H  0.57084943  0.68984843  0.54127371     0.35400
H1198       H  0.60076216  0.68949975  0.58026296     0.40500
H1199       H  0.65665806  0.54517514  0.49274340     0.40200
H1200       H  0.69089594  0.57336930  0.49046362     0.35000
C1201       C  0.75621432  0.63714438  0.29177768    -0.26700
C1202       C  0.76959443  0.61156906  0.26435632    -0.14800
C1203       C  0.74979286  0.58077770  0.25788783     0.35900
C1204       C  0.71644400  0.57709794  0.27689186    -0.26100
C1205       C  0.70214026  0.60392379  0.30190513    -0.15400
C1206       C  0.72296296  0.63369526  0.31056141     0.37000
N1207       N  0.71019273  0.66058546  0.33822747    -0.89600
H1208       H  0.77120683  0.66076529  0.29749054     0.18100
H1209       H  0.70116350  0.55371984  0.27074685     0.18100
N1210       N  0.76310050  0.55342306  0.23161733    -0.88700
H1211       H  0.72839205  0.68096493  0.34079826     0.35400
H1212       H  0.70796647  0.64977868  0.36824374     0.40500
H1213       H  0.74500645  0.54913038  0.20724509     0.40200
H1214       H  0.76452557  0.53067543  0.24956296     0.35000
C1215       C  0.96170351  0.66383131  0.27128561    -0.26700
C1216       C  0.94949667  0.63827333  0.24285730    -0.14800
C1217       C  0.97238372  0.61098474  0.23126768     0.35900
C1218       C  0.00621456  0.60906996  0.24907323    -0.26100
C1219       C  0.01811691  0.63380379  0.27876580    -0.15400
C1220       C  0.99566979  0.66188413  0.28944170     0.37000
N1221       N  0.50522856  0.68602063  0.32529852    -0.89600
H1222       H  0.94445598  0.68514698  0.27992630     0.18100
H1223       H  0.02284468  0.58726344  0.24043755     0.18100
N1224       N  0.96157173  0.58517727  0.20109981    -0.88700
H1225       H  0.48702827  0.68418979  0.34976734     0.35400
H1226       H  0.50356657  0.71113227  0.31279118     0.40500
H1227       H  0.96328726  0.56070141  0.21530664     0.40200
H1228       H  0.97928678  0.58568604  0.17603892     0.35000
C1229       C  0.85832560  0.89473609  0.49685547    -0.26700
C1230       C  0.88028047  0.87012125  0.47729743    -0.14800
C1231       C  0.90015621  0.84709390  0.50252473     0.35900
C1232       C  0.89990508  0.85141599  0.54655669    -0.26100
C1233       C  0.88016971  0.87808592  0.56571695    -0.15400
C1234       C  0.85848639  0.89943396  0.54059759     0.37000
N1235       N  0.83853462  0.92737161  0.55911222    -0.89600
H1236       H  0.84266228  0.91218506  0.47768622     0.18100
H1237       H  0.91626529  0.83475040  0.56592979     0.18100
N1238       N  0.92203789  0.82090311  0.48351443    -0.88700
H1239       H  0.82351240  0.94018451  0.53628210     0.35400
H1240       H  0.85646500  0.94577126  0.57085541     0.40500
H1241       H  0.90540315  0.80290020  0.46862993     0.40200
H1242       H  0.93590631  0.80707944  0.50654774     0.35000
C1243       C  0.50756121  0.96067481  0.35812746    -0.26700
C1244       C  0.97225405  0.96610286  0.37149670    -0.14800
C1245       C  0.96435587  0.51015237  0.37200021     0.35900
C1246       C  0.99250979  0.53382342  0.37335310    -0.26100
C1247       C  0.52863515  0.51830458  0.35976106    -0.15400
C1248       C  0.53514548  0.98499383  0.35878839     0.37000
N1249       N  0.56986761  0.97475599  0.34592564    -0.89600
H1250       H  0.51267395  0.93418357  0.34775060     0.18100
H1251       H  0.98682472  0.56127913  0.37788875     0.18100
N1252       N  0.92900401  0.52240212  0.37689160    -0.88700
H1253       H  0.57012889  0.94860906  0.33633562     0.35400
H1254       H  0.57545468  0.45155413  0.34805544     0.40500
H1255       H  0.92153909  0.02942686  0.35779806     0.40200
H1256       H  0.92732759  0.53529759  0.40584968     0.35000
C1257       C  0.65079233  0.89080067  0.99461273    -0.26700
C1258       C  0.62675881  0.86927541  0.97291345    -0.14800
C1259       C  0.60171290  0.85011336  0.99603335     0.35900
C1260       C  0.60360928  0.85034562  0.04022273    -0.26100
C1261       C  0.62942103  0.86982396  0.06175063    -0.15400
C1262       C  0.65256816  0.89116824  0.03873540     0.37000
N1263       N  0.67923311  0.91142794  0.05991833    -0.89600
H1264       H  0.66969365  0.90600630  0.97703780     0.18100
H1265       H  0.58555859  0.83428048  0.05798103     0.18100
N1266       N  0.57568526  0.82911181  0.97480895    -0.88700
H1267       H  0.69358162  0.92618479  0.03837455     0.35400
H1268       H  0.69706426  0.89400501  0.07355690     0.40500
H1269       H  0.55867635  0.84606714  0.95905329     0.40200
H1270       H  0.56027216  0.81560109  0.99653649     0.35000
C1271       C  0.75987428  0.78553287  0.17066772    -0.26700
C1272       C  0.72525837  0.77436390  0.16233558    -0.14800
C1273       C  0.71887567  0.73930933  0.15214243     0.35900
C1274       C  0.74686289  0.71560462  0.15213424    -0.26100
C1275       C  0.78122000  0.72614570  0.16320054    -0.15400
C1276       C  0.78798122  0.76173080  0.17151223     0.37000
N1277       N  0.82297087  0.77344824  0.18174199    -0.89600
H1278       H  0.76476515  0.81268914  0.17839909     0.18100
H1279       H  0.74122920  0.68844455  0.14528163     0.18100
N1280       N  0.68400670  0.72765086  0.14200278    -0.88700
H1281       H  0.82317064  0.80027760  0.18788571     0.35400
H1282       H  0.83855752  0.76953563  0.15513696     0.40500
H1283       H  0.67719130  0.70803005  0.16318021     0.40200
H1284       H  0.68444321  0.71668659  0.11181952     0.35000
C1285       C  0.52896410  0.88108742  0.22849939    -0.26700
C1286       C  0.54953189  0.85176334  0.23814708    -0.14800
C1287       C  0.53457627  0.82548228  0.26378700     0.35900
C1288       C  0.50073703  0.83009758  0.28079338    -0.26100
C1289       C  0.48078176  0.86019468  0.27247441    -0.15400
C1290       C  0.49498869  0.88544322  0.24498551     0.37000
N1291       N  0.97238652  0.90781352  0.22942949    -0.89600
H1292       H  0.53949663  0.90123078  0.20831990     0.18100
H1293       H  0.49049555  0.81044970  0.30185324     0.18100
N1294       N  0.55350944  0.79450619  0.27461668    -0.88700
H1295       H  0.96961643  0.90587091  0.19676500     0.35400
H1296       H  0.98580336  0.93100862  0.23631538     0.40500
H1297       H  0.57720551  0.80170646  0.28915717     0.40200
H1298       H  0.55896528  0.78064931  0.24704728     0.35000
C1299       C  0.75096528  0.90733388  0.25984350    -0.26700
C1300       C  0.73237905  0.87575576  0.26341142    -0.14800
C1301       C  0.74886282  0.84750790  0.28409276     0.35900
C1302       C  0.78300034  0.85120146  0.30044015    -0.26100
C1303       C  0.80174091  0.88254361  0.29676903    -0.15400
C1304       C  0.78541547  0.91110229  0.27635529     0.37000
N1305       N  0.80395238  0.94355024  0.27164217    -0.89600
H1306       H  0.73889446  0.92890302  0.24329316     0.18100
H1307       H  0.79498685  0.82905983  0.31597823     0.18100
N1308       N  0.73169424  0.81432525  0.28718854    -0.88700
H1309       H  0.78806049  0.96195624  0.25663473     0.35400
H1310       H  0.82528597  0.93896722  0.25167724     0.40500
H1311       H  0.73003251  0.80780303  0.31900931     0.40200
H1312       H  0.74738813  0.79567391  0.27221735     0.35000
loop_ 
_geom_bond_atom_site_label_1 
_geom_bond_atom_site_label_2 
_geom_bond_distance 
_geom_bond_site_symmetry_2 
_ccdc_geom_bond_type 
In1           O3   2.240       .  S
In1           O4   2.254       .  S
In1          O12   2.247       .  S
In1           O6   2.269       .  S
In1           O8   2.255       .  S
In1           O9   2.266       .  S
In1          O10   2.211       .  S
In1          O13   2.236       .  S
C2            O8   1.266       .  A
C2           O10   1.258       .  A
C2          C288   1.476       .  S
O3           C11   1.263       .  A
O4           C11   1.265       .  A
C5           O12   1.263       .  A
C5            O6   1.262       .  A
C5          C302   1.486       .  S
C7            O9   1.264       .  A
C7           O13   1.260       .  A
C7          C316   1.491       .  S
C11         C277   1.487       .  S
In14         O16   2.218       .  S
In14         O17   2.253       .  S
In14         O25   2.237       .  S
In14         O19   2.255       .  S
In14         O21   2.249       .  S
In14         O22   2.247       .  S
In14         O23   2.208       .  S
In14         O26   2.224       .  S
C15          O21   1.269       .  A
C15          O23   1.258       .  A
C15         C260   1.466       .  S
O16          C24   1.262       .  A
O17          C24   1.266       .  A
C18          O25   1.265       .  A
C18          O19   1.264       .  A
C18         C319   1.488       .  S
C20          O22   1.267       .  A
C20          O26   1.262       .  A
C20         C961   1.487       .  S
C24         C246   1.482       .  S
In27         O29   2.234       .  S
In27         O30   2.262       .  S
In27         O38   2.255       .  S
In27         O32   2.269       .  S
In27         O34   2.245       .  S
In27         O35   2.268       .  S
In27         O36   2.214       .  S
In27         O39   2.239       .  S
C28          O34   1.267       .  A
C28          O36   1.259       .  A
C28         C263   1.476       .  S
O29          C37   1.260       .  A
O30          C37   1.266       .  A
C31          O38   1.264       .  A
C31          O32   1.263       .  A
C31         C221   1.499       .  S
C33          O35   1.267       .  A
C33          O39   1.263       .  A
C33         C891   1.494       .  S
C37         C204   1.486       .  S
In40         O42   2.225       .  S
In40         O43   2.251       .  S
In40         O51   2.250       .  S
In40         O45   2.262       .  S
In40         O47   2.242       .  S
In40         O48   2.281       .  S
In40         O49   2.213       .  S
In40         O52   2.224       .  S
C41          O47   1.269       .  A
C41          O49   1.260       .  A
C41         C291   1.470       .  S
O42          C50   1.262       .  A
O43          C50   1.267       .  A
C44          O51   1.265       .  A
C44          O45   1.264       .  A
C44         C232   1.491       .  S
C46          O48   1.269       .  A
C46          O52   1.262       .  A
C46         C218   1.492       .  S
C50         C193   1.485       .  S
In53         O55   2.230       .  S
In53         O56   2.240       .  S
In53         O64   2.241       .  S
In53         O58   2.263       .  S
In53         O60   2.245       .  S
In53         O61   2.271       .  S
In53         O62   2.215       .  S
In53         O65   2.232       .  S
C54          O60   1.265       .  A
C54          O62   1.258       .  A
C54         C148   1.478       .  S
O55          C63   1.263       .  A
O56          C63   1.266       .  A
C57          O64   1.264       .  A
C57          O58   1.263       .  A
C57         C162   1.490       .  S
C59          O61   1.264       .  A
C59          O65   1.261       .  A
C59         C176   1.494       .  S
C63         C190   1.480       .  S
In66         O68   2.236       .  S
In66         O69   2.243       .  S
In66         O77   2.239       .  S
In66         O71   2.266       .  S
In66         O73   2.252       .  S
In66         O74   2.270       .  S
In66         O75   2.212       .  S
In66         O78   2.221       .  S
C67          O73   1.268       .  A
C67          O75   1.257       .  A
C67         C134   1.479       .  S
O68          C76   1.262       .  A
O69          C76   1.265       .  A
C70          O77   1.264       .  A
C70          O71   1.264       .  A
C70         C179   1.491       .  S
C72          O74   1.266       .  A
C72          O78   1.261       .  A
C72         C493   1.487       .  S
C76         C249   1.478       .  S
In79         O81   2.244       .  S
In79         O82   2.260       .  S
In79         O90   2.248       .  S
In79         O84   2.261       .  S
In79         O86   2.262       .  S
In79         O87   2.262       .  S
In79         O88   2.203       .  S
In79         O91   2.243       .  S
C80          O86   1.267       .  A
C80          O88   1.257       .  A
C80         C151   1.469       .  S
O81          C89   1.261       .  A
O82          C89   1.264       .  A
C83          O90   1.264       .  A
C83          O84   1.262       .  A
C83         C106   1.490       .  S
C85          O87   1.266       .  A
C85          O91   1.262       .  A
C85         C120   1.495       .  S
C89         C274   1.490       .  S
In92         O94   2.235       .  S
In92         O95   2.248       .  S
In92        O103   2.255       .  S
In92         O97   2.266       .  S
In92         O99   2.247       .  S
In92        O100   2.270       .  S
In92        O101   2.208       .  S
In92        O104   2.245       .  S
C93          O99   1.268       .  A
C93         O101   1.258       .  A
C93         C137   1.472       .  S
O94         C102   1.262       .  A
O95         C102   1.267       .  A
C96         O103   1.265       .  A
C96          O97   1.263       .  A
C96         C123   1.494       .  S
C98         O100   1.266       .  A
C98         O104   1.262       .  A
C98         C437   1.497       .  S
C102        C207   1.482       .  S
C105        C106   1.401       .  A
C105        C110   1.402       .  A
C105        H112   1.084       .  S
C106        C107   1.418       .  A
C107        C108   1.408       .  A
C107        N114   1.432       .  S
C108        C109   1.407       .  A
C108        H113   1.084       .  S
C109        C426   1.493       .  S
C109        C110   1.416       .  A
C110        N439   1.433       .  S
N111        C438   1.432       .  S
N111        H115   1.046       .  S
N111        H116   1.046       .  S
N114        H117   1.047       .  S
N114        H118   1.044       .  S
C119        C120   1.408       .  A
C119        C124   1.407       .  A
C119        H126   1.084       .  S
C120        C121   1.414       .  A
C121        C122   1.406       .  A
C121        N128   1.432       .  S
C122        C123   1.405       .  A
C122        H127   1.084       .  S
C123        C124   1.418       .  A
C124        N125   1.432       .  S
N125        H129   1.046       .  S
N125        H130   1.045       .  S
N128        H131   1.046       .  S
N128        H132   1.045       .  S
C133        C138   1.402       .  A
C133        C790   1.401   1_455  A
C133        H140   1.084       .  S
C134        C789   1.401       .  A
C134        C463   1.422       .  A
C135        C136   1.396       .  A
C135        C462   1.423   1_545  A
C135        N142   1.433       .  S
C136        C793   1.396       .  A
C136        H141   1.084       .  S
C137        C792   1.397   1_455  A
C137        C466   1.417   1_545  A
C138        C465   1.413       .  A
C138        N139   1.433       .  S
N139        H143   1.046       .  S
N139        H144   1.046       .  S
N142        H145   1.046       .  S
N142        H146   1.045       .  S
C147        C148   1.410       .  A
C147        C152   1.404       .  A
C147        H154   1.084       .  S
C148        C149   1.413       .  A
C149        C150   1.395       .  A
C149        N156   1.432       .  S
C150        C151   1.404       .  A
C150        H155   1.085       .  S
C151        C152   1.405       .  A
C152        N153   1.438       .  S
N153        H157   1.045       .  S
N153        H158   1.046       .  S
N156        H159   1.045       .  S
N156        H160   1.045       .  S
C161        C162   1.408       .  A
C161        C166   1.415       .  A
C161        H168   1.083       .  S
C162        C163   1.409       .  A
C163        C164   1.401   1_545  A
C163        N170   1.433       .  S
C164        C165   1.406       .  A
C164        H169   1.084       .  S
C165        C400   1.491       .  S
C165        C166   1.415   1_565  A
C166        N167   1.437   1_545  S
N167        H171   1.047   1_565  S
N167        H500   1.045       .  S
N170        H173   1.046       .  S
N170        H174   1.046       .  S
H172        N495   1.046       .  S
C175        C176   1.407       .  A
C175        C180   1.405       .  A
C175        H182   1.083       .  S
C176        C177   1.418       .  A
C177        C178   1.408       .  A
C177        N184   1.432       .  S
C178        C179   1.408       .  A
C178        H183   1.084       .  S
C179        C180   1.413       .  A
C180        N181   1.438       .  S
N181        H185   1.046       .  S
N181        H186   1.045       .  S
N184        H187   1.046       .  S
N184        H188   1.045       .  S
C189        C190   1.404       .  A
C189        C194   1.408   1_556  A
C189        H196   1.084       .  S
C190        C191   1.408   1_556  A
C191        C192   1.402       .  A
C191        N198   1.433   1_554  S
C192        C193   1.406       .  A
C192        H197   1.084       .  S
C193        C194   1.414       .  A
C194        N195   1.438       .  S
N195        H199   1.045       .  S
N195        H200   1.046       .  S
N198        H201   1.045       .  S
N198        H202   1.046       .  S
C203        C204   1.405       .  A
C203        C208   1.406       .  A
C203        H210   1.084       .  S
C204        C205   1.413       .  A
C205        C206   1.404       .  A
C205        N212   1.432       .  S
C206        C207   1.402       .  A
C206        H211   1.084       .  S
C207        C208   1.411       .  A
C208        N209   1.432       .  S
N209        H213   1.046       .  S
N209        H214   1.045       .  S
N212        H215   1.047       .  S
N212        H216   1.045       .  S
C217        C218   1.406       .  A
C217        C222   1.407       .  A
C217        H224   1.084       .  S
C218        C219   1.408       .  A
C219        C220   1.413       .  A
C219        N226   1.431       .  S
C220        C221   1.412       .  A
C220        H225   1.083       .  S
C221        C222   1.416       .  A
C222        N223   1.438       .  S
N223        H227   1.046       .  S
N223        H228   1.046       .  S
N226        H229   1.045       .  S
N226        H230   1.046       .  S
C231        C232   1.407       .  A
C231        C236   1.415       .  A
C231        H238   1.083       .  S
C232        C233   1.409       .  A
C233        C234   1.404       .  A
C233        N240   1.433       .  S
C234        C235   1.407       .  A
C234        H239   1.084       .  S
C235        C689   1.496       .  S
C235        C236   1.417       .  A
C236        N893   1.437       .  S
N237        C892   1.432   1_455  S
N237        H241   1.046   1_455  S
N237        H242   1.045       .  S
N240        H243   1.045       .  S
N240        H244   1.046       .  S
C245        C246   1.405       .  A
C245        C250   1.401       .  A
C245        H252   1.084       .  S
C246        C247   1.411       .  A
C247        C248   1.406       .  A
C247        N254   1.432       .  S
C248        C249   1.405       .  A
C248        H253   1.084       .  S
C249        C250   1.408       .  A
C250        N251   1.433       .  S
N251        H255   1.045       .  S
N251        H256   1.046       .  S
N254        H257   1.046       .  S
N254        H258   1.045       .  S
C259        C264   1.404       .  A
C259        C916   1.405   1_455  A
C259        H266   1.084       .  S
C260        C915   1.404       .  A
C260        C589   1.400       .  A
C261        C262   1.401       .  A
C261        C588   1.402   1_545  A
C261        N268   1.432       .  S
C262        C919   1.409       .  A
C262        H267   1.084       .  S
C263        C918   1.407   1_455  A
C263        C592   1.410   1_545  A
C264        C591   1.410       .  A
C264        N265   1.437       .  S
N265        H269   1.046       .  S
N265        H598   1.045       .  S
N268        H272   1.046       .  S
N268        H599   1.045       .  S
H270        N593   1.045       .  S
H271        N596   1.046       .  S
C273        C274   1.406   1_554  A
C273        C278   1.409       .  A
C273        H280   1.084   1_554  S
C274        C275   1.414   1_556  A
C275        C276   1.409       .  A
C275        N282   1.437   1_554  S
C276        C277   1.405       .  A
C276        H281   1.084       .  S
C277        C278   1.414       .  A
C278        N279   1.438       .  S
N279        H283   1.046       .  S
N279        H284   1.045       .  S
N282        H285   1.046       .  S
N282        H286   1.045       .  S
C287        C288   1.408       .  A
C287        C292   1.403       .  A
C287        H294   1.083       .  S
C288        C289   1.407       .  A
C289        C290   1.401       .  A
C289        N296   1.432       .  S
C290        C291   1.406       .  A
C290        H295   1.084       .  S
C291        C292   1.405       .  A
C292        N293   1.438       .  S
N293        H297   1.045       .  S
N293        H298   1.046       .  S
N296        H299   1.046       .  S
N296        H300   1.046       .  S
C301        C302   1.401       .  A
C301        C306   1.403   1_455  A
C301        H308   1.084       .  S
C302        C303   1.416       .  A
C303        C304   1.407   1_455  A
C303        N310   1.432       .  S
C304        C305   1.409       .  A
C304        H309   1.084       .  S
C305        C676   1.491       .  S
C305        C306   1.413       .  A
C306        N963   1.432       .  S
N307        C962   1.433       .  S
N307        H311   1.045       .  S
N307        H312   1.046       .  S
N310        H313   1.045       .  S
N310        H314   1.045       .  S
C315        C316   1.407       .  A
C315        C320   1.413       .  A
C315        H322   1.083       .  S
C316        C317   1.414       .  A
C317        C318   1.402       .  A
C317        N324   1.433       .  S
C318        C319   1.403       .  A
C318        H323   1.084       .  S
C319        C320   1.415       .  A
C320        N321   1.437       .  S
N321        H325   1.046       .  S
N321        H326   1.045       .  S
N324        H327   1.046       .  S
N324        H328   1.045       .  S
In329       O331   2.220       .  S
In329       O332   2.249       .  S
In329       O340   2.242       .  S
In329       O334   2.255       .  S
In329       O336   2.248       .  S
In329       O337   2.262       .  S
In329       O338   2.216       .  S
In329       O341   2.227       .  S
C330        O336   1.267       .  A
C330        O338   1.259       .  A
C330        C616   1.477       .  S
O331        C339   1.262       .  A
O332        C339   1.266       .  A
C333        O340   1.264       .  A
C333        O334   1.263       .  A
C333        C630   1.487       .  S
C335        O337   1.266       .  A
C335        O341   1.261       .  A
C335        C644   1.488       .  S
C339        C605   1.480       .  S
In342       O344   2.220       .  S
In342       O345   2.262       .  S
In342       O353   2.250       .  S
In342       O347   2.247       .  S
In342       O349   2.250       .  S
In342       O350   2.270       .  S
In342       O351   2.201       .  S
In342       O354   2.237       .  S
C343        O349   1.268       .  A
C343        O351   1.259       .  A
C343        C588   1.465       .  S
O344        C352   1.261       .  A
O345        C352   1.267       .  A
C346        O353   1.266       .  A
C346        O347   1.263       .  A
C346        C647   1.492       .  S
C348        O350   1.268       .  A
C348        O354   1.262       .  A
C348       C1289   1.496       .  S
C352        C574   1.485       .  S
In355       O357   2.229       .  S
In355       O358   2.257       .  S
In355       O366   2.245       .  S
In355       O360   2.270       .  S
In355       O362   2.245       .  S
In355       O363   2.261       .  S
In355       O364   2.215       .  S
In355       O367   2.234       .  S
C356        O362   1.269       .  A
C356        O364   1.260       .  A
C356        C591   1.478       .  S
O357        C365   1.262       .  A
O358        C365   1.267       .  A
C359        O366   1.264       .  A
C359        O360   1.265       .  A
C359        C549   1.497       .  S
C361        O363   1.267       .  A
C361        O367   1.262       .  A
C361       C1219   1.493       .  S
C365        C532   1.487       .  S
In368       O370   2.225       .  S
In368       O371   2.250       .  S
In368       O379   2.242       .  S
In368       O373   2.260       .  S
In368       O375   2.253       .  S
In368       O376   2.268       .  S
In368       O377   2.203       .  S
In368       O380   2.227       .  S
C369        O375   1.269       .  A
C369        O377   1.259       .  A
C369        C619   1.471       .  S
O370        C378   1.262       .  A
O371        C378   1.266       .  A
C372        O379   1.264       .  A
C372        O373   1.264       .  A
C372        C560   1.487       .  S
C374        O376   1.267       .  A
C374        O380   1.262       .  A
C374        C546   1.489       .  S
C378        C521   1.481       .  S
In381       O383   2.223       .  S
In381       O384   2.253       .  S
In381       O392   2.238       .  S
In381       O386   2.254       .  S
In381       O388   2.245       .  S
In381       O389   2.268       .  S
In381       O390   2.216       .  S
In381       O393   2.234       .  S
C382        O388   1.264       .  A
C382        O390   1.256       .  A
C382        C476   1.468       .  S
O383        C391   1.263       .  A
O384        C391   1.268       .  A
C385        O392   1.264       .  A
C385        O386   1.262       .  A
C385        C490   1.487       .  S
C387        O389   1.264       .  A
C387        O393   1.260       .  A
C387        C504   1.491       .  S
C391        C518   1.486       .  S
In394       O396   2.235       .  S
In394       O397   2.240       .  S
In394       O405   2.246       .  S
In394       O399   2.251       .  S
In394       O401   2.255       .  S
In394       O402   2.269       .  S
In394       O403   2.207       .  S
In394       O406   2.228       .  S
C395        O401   1.267       .  A
C395        O403   1.256       .  A
C395        C462   1.477       .  S
O396        C404   1.263       .  A
O397        C404   1.266       .  A
C398        O405   1.265       .  A
C398        O399   1.263       .  A
C398        C507   1.488       .  S
C400        O402   1.265       .  A
C400        O406   1.261       .  A
C404        C577   1.482       .  S
In407       O409   2.233       .  S
In407       O410   2.245       .  S
In407       O418   2.254       .  S
In407       O412   2.272       .  S
In407       O414   2.246       .  S
In407       O415   2.284       .  S
In407       O416   2.229       .  S
In407       O419   2.233       .  S
C408        O414   1.262       .  A
C408        O416   1.257       .  A
C408        C479   1.476       .  S
O409        C417   1.265       .  A
O410        C417   1.267       .  A
C411        O418   1.264       .  A
C411        O412   1.262       .  A
C411        C434   1.489       .  S
C413        O415   1.264       .  A
C413        O419   1.258       .  A
C413        C448   1.498       .  S
C417        C602   1.484       .  S
In420       O422   2.235       .  S
In420       O423   2.257       .  S
In420       O431   2.252       .  S
In420       O425   2.264       .  S
In420       O427   2.246       .  S
In420       O428   2.269       .  S
In420       O429   2.215       .  S
In420       O432   2.226       .  S
C421        O427   1.267       .  A
C421        O429   1.257       .  A
C421        C465   1.471       .  S
O422        C430   1.262       .  A
O423        C430   1.267       .  A
C424        O431   1.266       .  A
C424        O425   1.263       .  A
C424        C451   1.494       .  S
C426        O428   1.267       .  A
C426        O432   1.260       .  A
C430        C535   1.484       .  S
C433        C434   1.402       .  A
C433        C438   1.406   1_565  A
C433        H440   1.084       .  S
C434        C435   1.416       .  A
C435        C436   1.409   1_565  A
C435        N442   1.432       .  S
C436        C437   1.409       .  A
C436        H441   1.084       .  S
C437        C438   1.415       .  A
N439        H443   1.045       .  S
N439        H444   1.047       .  S
N442        H445   1.046       .  S
N442        H446   1.045       .  S
C447        C448   1.408       .  A
C447        C452   1.410       .  A
C447        H454   1.084       .  S
C448        C449   1.418       .  A
C449        C450   1.407       .  A
C449        N456   1.438       .  S
C450        C451   1.402       .  A
C450        H455   1.084       .  S
C451        C452   1.419       .  A
C452        N453   1.432       .  S
N453        H457   1.045       .  S
N453        H458   1.046       .  S
N456        H459   1.046       .  S
N456        H460   1.045       .  S
C461       C1118   1.400   1_455  A
C461        C466   1.405       .  A
C461        H468   1.084       .  S
C462       C1117   1.402       .  A
C463        C464   1.397       .  A
C463        N470   1.433       .  S
C464       C1121   1.397       .  A
C464        H469   1.084       .  S
C465       C1120   1.396   1_455  A
C466        N467   1.439       .  S
N467        H471   1.046       .  S
N467        H472   1.045       .  S
N470        H473   1.046       .  S
N470        H474   1.044       .  S
C475        C476   1.402       .  A
C475        C480   1.403       .  A
C475        H482   1.084       .  S
C476        C477   1.412       .  A
C477        C478   1.396       .  A
C477        N484   1.433       .  S
C478        C479   1.405       .  A
C478        H483   1.084       .  S
C479        C480   1.414       .  A
C480        N481   1.438       .  S
N481        H485   1.046       .  S
N481        H486   1.045       .  S
N484        H487   1.044       .  S
N484        H488   1.046       .  S
C489        C490   1.409       .  A
C489        C494   1.411       .  A
C489        H496   1.084       .  S
C490        C491   1.410       .  A
C491        C492   1.400       .  A
C491        N498   1.433       .  S
C492        C493   1.405       .  A
C492        H497   1.084       .  S
C493        C494   1.411       .  A
C494        N495   1.432       .  S
N495        H499   1.046       .  S
N498        H501   1.046       .  S
N498        H502   1.046       .  S
C503        C504   1.408       .  A
C503        C508   1.406       .  A
C503        H510   1.084       .  S
C504        C505   1.417       .  A
C505        C506   1.405       .  A
C505        N512   1.432       .  S
C506        C507   1.406       .  A
C506        H511   1.084       .  S
C507        C508   1.412       .  A
C508        N509   1.438       .  S
N509        H513   1.046       .  S
N509        H514   1.045       .  S
N512        H515   1.045       .  S
N512        H516   1.045       .  S
C517        C518   1.407       .  A
C517        C522   1.404   1_556  A
C517        H524   1.084       .  S
C518        C519   1.411       .  A
C519        C520   1.405   1_556  A
C519        N526   1.432       .  S
C520        C521   1.405       .  A
C520        H525   1.084       .  S
C521        C522   1.409       .  A
C522        N523   1.432       .  S
N523        H527   1.046       .  S
N523        H528   1.046       .  S
N526        H529   1.046       .  S
N526        H530   1.046       .  S
C531        C532   1.405       .  A
C531        C536   1.409       .  A
C531        H538   1.083       .  S
C532        C533   1.413       .  A
C533        C534   1.405       .  A
C533        N540   1.432       .  S
C534        C535   1.402       .  A
C534        H539   1.084       .  S
C535        C536   1.413       .  A
C536        N537   1.437       .  S
N537        H541   1.046       .  S
N537        H542   1.045       .  S
N540        H543   1.046       .  S
N540        H544   1.045       .  S
C545        C546   1.405       .  A
C545        C550   1.403       .  A
C545        H552   1.084       .  S
C546        C547   1.409       .  A
C547        C548   1.413       .  A
C547        N554   1.432       .  S
C548        C549   1.411       .  A
C548        H553   1.083       .  S
C549        C550   1.413       .  A
C550        N551   1.433       .  S
N551        H555   1.046       .  S
N551        H556   1.045       .  S
N554        H557   1.045       .  S
N554        H558   1.046       .  S
C559        C560   1.407       .  A
C559        C564   1.411       .  A
C559        H566   1.084       .  S
C560        C561   1.410       .  A
C561        C562   1.402       .  A
C561        N568   1.433       .  S
C562        C563   1.406       .  A
C562        H567   1.084       .  S
C563       C1017   1.490       .  S
C563        C564   1.413       .  A
C564       N1221   1.432       .  S
N565       C1220   1.437   1_455  S
N565        H569   1.045   1_455  S
N565        H570   1.046       .  S
N568        H571   1.046       .  S
N568        H572   1.045       .  S
C573        C574   1.406       .  A
C573        C578   1.402       .  A
C573        H580   1.084       .  S
C574        C575   1.411       .  A
C575        C576   1.407       .  A
C575        N582   1.432       .  S
C576        C577   1.406       .  A
C576        H581   1.084       .  S
C577        C578   1.409       .  A
C578        N579   1.433       .  S
N579        H583   1.046       .  S
N579        H584   1.046       .  S
N582        H585   1.046       .  S
N582        H586   1.045       .  S
C587       C1244   1.405   1_455  A
C587        C592   1.404       .  A
C587        H594   1.084       .  S
C588       C1243   1.403       .  A
C589        C590   1.401       .  A
C589        N596   1.432       .  S
C590       C1247   1.409       .  A
C590        H595   1.084       .  S
C591       C1246   1.409   1_455  A
C592        N593   1.437       .  S
N593        H597   1.046       .  S
N596        H600   1.045       .  S
C601        C602   1.406   1_554  A
C601        C606   1.407       .  A
C601        H608   1.084   1_554  S
C602        C603   1.413       .  A
C603        C604   1.405   1_556  A
C603        N610   1.438       .  S
C604        C605   1.404       .  A
C604        H609   1.084       .  S
C605        C606   1.412       .  A
C606        N607   1.438       .  S
N607        H611   1.045       .  S
N607        H612   1.046       .  S
N610        H613   1.044       .  S
N610        H614   1.047       .  S
C615        C616   1.409       .  A
C615        C620   1.405       .  A
C615        H622   1.083       .  S
C616        C617   1.406       .  A
C617        C618   1.398       .  A
C617        N624   1.432       .  S
C618        C619   1.405       .  A
C618        H623   1.084       .  S
C619        C620   1.407       .  A
C620        N621   1.437       .  S
N621        H625   1.046       .  S
N621        H626   1.045       .  S
N624        H627   1.046       .  S
N624        H628   1.045       .  S
C629        C630   1.403       .  A
C629        C634   1.403   1_455  A
C629        H636   1.084       .  S
C630        C631   1.417       .  A
C631        C632   1.404       .  A
C631        N638   1.432       .  S
C632        C633   1.406   1_455  A
C632        H637   1.084   1_455  S
C633       C1004   1.489       .  S
C633        C634   1.415       .  A
C634       N1291   1.433       .  S
N635       C1290   1.433       .  S
N635        H639   1.046       .  S
N635        H640   1.046       .  S
N638        H641   1.046       .  S
N638        H642   1.044       .  S
C643        C644   1.404       .  A
C643        C648   1.412       .  A
C643        H650   1.083       .  S
C644        C645   1.414       .  A
C645        C646   1.403       .  A
C645        N652   1.433       .  S
C646        C647   1.403       .  A
C646        H651   1.084       .  S
C647        C648   1.418       .  A
C648        N649   1.437       .  S
N649        H653   1.046       .  S
N649        H654   1.045       .  S
N652        H655   1.045       .  S
N652        H656   1.046       .  S
In657       O659   2.233       .  S
In657       O660   2.250       .  S
In657       O668   2.247       .  S
In657       O662   2.248       .  S
In657       O664   2.245       .  S
In657       O665   2.271       .  S
In657       O666   2.219       .  S
In657       O669   2.227       .  S
C658        O664   1.266       .  A
C658        O666   1.260       .  A
C658        C944   1.475       .  S
O659        C667   1.261       .  A
O660        C667   1.266       .  A
C661        O668   1.264       .  A
C661        O662   1.262       .  A
C661        C958   1.486       .  S
C663        O665   1.267       .  A
C663        O669   1.260       .  A
C663        C972   1.494       .  S
C667        C933   1.483       .  S
In670       O672   2.230       .  S
In670       O673   2.251       .  S
In670       O681   2.241       .  S
In670       O675   2.263       .  S
In670       O677   2.260       .  S
In670       O678   2.262       .  S
In670       O679   2.217       .  S
In670       O682   2.231       .  S
C671        O677   1.266       .  A
C671        O679   1.258       .  A
C671        C916   1.473       .  S
O672        C680   1.261       .  A
O673        C680   1.263       .  A
C674        O681   1.264       .  A
C674        O675   1.263       .  A
C674        C975   1.489       .  S
C676        O678   1.265       .  A
C676        O682   1.262       .  A
C680        C902   1.484       .  S
In683       O685   2.238       .  S
In683       O686   2.258       .  S
In683       O694   2.249       .  S
In683       O688   2.264       .  S
In683       O690   2.246       .  S
In683       O691   2.273       .  S
In683       O692   2.218       .  S
In683       O695   2.239       .  S
C684        O690   1.265       .  A
C684        O692   1.259       .  A
C684        C919   1.476       .  S
O685        C693   1.261       .  A
O686        C693   1.265       .  A
C687        O694   1.265       .  A
C687        O688   1.262       .  A
C687        C877   1.493       .  S
C689        O691   1.265       .  A
C689        O695   1.261       .  A
C693        C860   1.482       .  S
In696       O698   2.229       .  S
In696       O699   2.262       .  S
In696       O707   2.247       .  S
In696       O701   2.266       .  S
In696       O703   2.253       .  S
In696       O704   2.275       .  S
In696       O705   2.217       .  S
In696       O708   2.229       .  S
C697        O703   1.268       .  A
C697        O705   1.260       .  A
C697        C947   1.478       .  S
O698        C706   1.261       .  A
O699        C706   1.267       .  A
C700        O707   1.264       .  A
C700        O701   1.265       .  A
C700        C888   1.493       .  S
C702        O704   1.268       .  A
C702        O708   1.262       .  A
C702        C874   1.491       .  S
C706        C849   1.487       .  S
In709       O711   2.224       .  S
In709       O712   2.253       .  S
In709       O720   2.251       .  S
In709       O714   2.265       .  S
In709       O716   2.248       .  S
In709       O717   2.266       .  S
In709       O718   2.226       .  S
In709       O721   2.234       .  S
C710        O716   1.265       .  A
C710        O718   1.257       .  A
C710        C804   1.471       .  S
O711        C719   1.263       .  A
O712        C719   1.267       .  A
C713        O720   1.264       .  A
C713        O714   1.263       .  A
C713        C818   1.491       .  S
C715        O717   1.265       .  A
C715        O721   1.261       .  A
C715        C832   1.494       .  S
C719        C846   1.482       .  S
In722       O724   2.232       .  S
In722       O725   2.237       .  S
In722       O733   2.240       .  S
In722       O727   2.254       .  S
In722       O729   2.253       .  S
In722       O730   2.262       .  S
In722       O731   2.205       .  S
In722       O734   2.236       .  S
C723        O729   1.265       .  A
C723        O731   1.256       .  A
C723        C790   1.473       .  S
O724        C732   1.263       .  A
O725        C732   1.265       .  A
C726        O733   1.264       .  A
C726        O727   1.262       .  A
C726        C835   1.483       .  S
C728        O730   1.263       .  A
C728        O734   1.260       .  A
C728       C1149   1.487       .  S
C732        C905   1.477       .  S
In735       O737   2.228       .  S
In735       O738   2.247       .  S
In735       O746   2.256       .  S
In735       O740   2.264       .  S
In735       O742   2.248       .  S
In735       O743   2.263       .  S
In735       O744   2.232       .  S
In735       O747   2.249       .  S
C736        O742   1.262       .  A
C736        O744   1.258       .  A
C736        C807   1.478       .  S
O737        C745   1.264       .  A
O738        C745   1.266       .  A
C739        O746   1.263       .  A
C739        O740   1.261       .  A
C739        C762   1.489       .  S
C741        O743   1.261       .  A
C741        O747   1.259       .  A
C741        C776   1.492       .  S
C745        C930   1.480       .  S
In748       O750   2.227       .  S
In748       O751   2.250       .  S
In748       O759   2.247       .  S
In748       O753   2.257       .  S
In748       O755   2.249       .  S
In748       O756   2.265       .  S
In748       O757   2.208       .  S
In748       O760   2.236       .  S
C749        O755   1.267       .  A
C749        O757   1.258       .  A
C749        C793   1.466       .  S
O750        C758   1.262       .  A
O751        C758   1.267       .  A
C752        O759   1.265       .  A
C752        O753   1.263       .  A
C752        C779   1.489       .  S
C754        O756   1.266       .  A
C754        O760   1.262       .  A
C754       C1093   1.494       .  S
C758        C863   1.483       .  S
C761        C762   1.403       .  A
C761        C766   1.406       .  A
C761        H768   1.084       .  S
C762        C763   1.416       .  A
C763        C764   1.406       .  A
C763        N770   1.432       .  S
C764        C765   1.408       .  A
C764        H769   1.084       .  S
C765       C1082   1.494       .  S
C765        C766   1.415       .  A
C766       N1095   1.432       .  S
N767       C1094   1.432       .  S
N767        H771   1.046       .  S
N767        H772   1.045       .  S
N770        H773   1.046       .  S
N770        H774   1.044       .  S
C775        C776   1.407       .  A
C775        C780   1.406       .  A
C775        H782   1.084       .  S
C776        C777   1.414       .  A
C777        C778   1.405       .  A
C777        N784   1.432       .  S
C778        C779   1.403       .  A
C778        H783   1.084       .  S
C779        C780   1.417       .  A
C780        N781   1.432       .  S
N781        H785   1.046       .  S
N781        H786   1.045       .  S
N784        H787   1.045       .  S
N784        H788   1.046       .  S
C789        C794   1.404       .  A
C789        H796   1.084       .  S
C790       C1119   1.420       .  A
C791       C1118   1.417   1_545  A
C791        C792   1.394       .  A
C791        N798   1.433       .  S
C792        H797   1.084       .  S
C793       C1122   1.410   1_545  A
C794       C1121   1.415       .  A
C794        N795   1.439       .  S
N795        H799   1.046       .  S
N795        H800   1.045       .  S
N798        H801   1.045       .  S
N798        H802   1.044       .  S
C803        C804   1.401       .  A
C803        C808   1.405       .  A
C803        H810   1.084       .  S
C804        C805   1.411       .  A
C805        C806   1.398       .  A
C805        N812   1.433       .  S
C806        C807   1.405       .  A
C806        H811   1.084       .  S
C807        C808   1.414       .  A
C808        N809   1.438       .  S
N809        H813   1.046       .  S
N809        H814   1.045       .  S
N812        H815   1.045       .  S
N812        H816   1.045       .  S
C817        C818   1.407       .  A
C817        C822   1.415       .  A
C817        H824   1.083       .  S
C818        C819   1.409       .  A
C819        C820   1.404   1_545  A
C819        N826   1.433       .  S
C820        C821   1.407       .  A
C820        H825   1.084       .  S
C821       C1056   1.494       .  S
C821        C822   1.415   1_565  A
C822        N823   1.437   1_545  S
N823        H827   1.046   1_565  S
N823       H1156   1.046       .  S
N826        H829   1.046       .  S
N826        H830   1.046       .  S
H828       N1151   1.046       .  S
C831        C832   1.409       .  A
C831        C836   1.403       .  A
C831        H838   1.084       .  S
C832        C833   1.421       .  A
C833        C834   1.406       .  A
C833        N840   1.432       .  S
C834        C835   1.404       .  A
C834        H839   1.084       .  S
C835        C836   1.407       .  A
C836        N837   1.433       .  S
N837        H841   1.046       .  S
N837        H842   1.045       .  S
N840        H843   1.045       .  S
N840        H844   1.045       .  S
C845        C846   1.405       .  A
C845        C850   1.408   1_556  A
C845        H852   1.084       .  S
C846        C847   1.408       .  A
C847        C848   1.404   1_556  A
C847        N854   1.433       .  S
C848        C849   1.407       .  A
C848        H853   1.084       .  S
C849        C850   1.414       .  A
C850        N851   1.438       .  S
N851        H855   1.046       .  S
N851        H856   1.046       .  S
N854        H857   1.045       .  S
N854        H858   1.046       .  S
C859        C860   1.403       .  A
C859        C864   1.405       .  A
C859        H866   1.084       .  S
C860        C861   1.411       .  A
C861        C862   1.405       .  A
C861        N868   1.432       .  S
C862        C863   1.404       .  A
C862        H867   1.084       .  S
C863        C864   1.413       .  A
C864        N865   1.433       .  S
N865        H869   1.046       .  S
N865        H870   1.045       .  S
N868        H871   1.045       .  S
N868        H872   1.046       .  S
C873        C874   1.406       .  A
C873        C878   1.406       .  A
C873        H880   1.083       .  S
C874        C875   1.410       .  A
C875        C876   1.412       .  A
C875        N882   1.432       .  S
C876        C877   1.410       .  A
C876        H881   1.084       .  S
C877        C878   1.413       .  A
C878        N879   1.438       .  S
N879        H883   1.046       .  S
N879        H884   1.046       .  S
N882        H885   1.045       .  S
N882        H886   1.046       .  S
C887        C888   1.407       .  A
C887        C892   1.412       .  A
C887        H894   1.084       .  S
C888        C889   1.412       .  A
C889        C890   1.405       .  A
C889        N896   1.433       .  S
C890        C891   1.407   1_655  A
C890        H895   1.084   1_655  S
C891        C892   1.413   1_455  A
N893        H897   1.046       .  S
N893        H898   1.045       .  S
N896        H899   1.045       .  S
N896        H900   1.046       .  S
C901        C902   1.405       .  A
C901        C906   1.404       .  A
C901        H908   1.083       .  S
C902        C903   1.414       .  A
C903        C904   1.407       .  A
C903        N910   1.437       .  S
C904        C905   1.403       .  A
C904        H909   1.084       .  S
C905        C906   1.411       .  A
C906        N907   1.438       .  S
N907        H911   1.046       .  S
N907        H912   1.046       .  S
N910        H913   1.046       .  S
N910        H914   1.046       .  S
C915        C920   1.402       .  A
C915        H922   1.085       .  S
C916       C1245   1.404       .  A
C917       C1244   1.404   1_545  A
C917        C918   1.400       .  A
C917        N924   1.432       .  S
C918        H923   1.084       .  S
C919       C1248   1.411   1_545  A
C920       C1247   1.409       .  A
C920        N921   1.432       .  S
N921        H925   1.046       .  S
N921       H1254   1.045       .  S
N924       H1255   1.046       .  S
N924        H928   1.045       .  S
H926       N1249   1.045       .  S
H927       N1252   1.046       .  S
C929        C930   1.403       .  A
C929        C934   1.402   1_556  A
C929        H936   1.084       .  S
C930        C931   1.413       .  A
C931        C932   1.408   1_556  A
C931        N938   1.438       .  S
C932        C933   1.406       .  A
C932        H937   1.084       .  S
C933        C934   1.409       .  A
C934        N935   1.432       .  S
N935        H939   1.045       .  S
N935        H940   1.045       .  S
N938        H941   1.045       .  S
N938        H942   1.046       .  S
C943        C944   1.407       .  A
C943        C948   1.405       .  A
C943        H950   1.084       .  S
C944        C945   1.405       .  A
C945        C946   1.401       .  A
C945        N952   1.432       .  S
C946        C947   1.407       .  A
C946        H951   1.084       .  S
C947        C948   1.410       .  A
C948        N949   1.437       .  S
N949        H953   1.046       .  S
N949        H954   1.045       .  S
N952        H955   1.045       .  S
N952        H956   1.046       .  S
C957        C958   1.402       .  A
C957        C962   1.402       .  A
C957        H964   1.084       .  S
C958        C959   1.417       .  A
C959        C960   1.404       .  A
C959        N966   1.432       .  S
C960        C961   1.405       .  A
C960        H965   1.084       .  S
C961        C962   1.415       .  A
N963        H967   1.045       .  S
N963        H968   1.046       .  S
N966        H969   1.046       .  S
N966        H970   1.044       .  S
C971        C972   1.408       .  A
C971        C976   1.413       .  A
C971        H978   1.083       .  S
C972        C973   1.417       .  A
C973        C974   1.405       .  A
C973        N980   1.438       .  S
C974        C975   1.402       .  A
C974        H979   1.084       .  S
C975        C976   1.415       .  A
C976        N977   1.437       .  S
N977        H981   1.046       .  S
N977        H982   1.045       .  S
N980        H983   1.046       .  S
N980        H984   1.046       .  S
In985       O987   2.220       .  S
In985       O988   2.248       .  S
In985       O996   2.249       .  S
In985       O990   2.263       .  S
In985       O992   2.250       .  S
In985       O993   2.266       .  S
In985       O994   2.214       .  S
In985       O997   2.224       .  S
C986        O992   1.269       .  A
C986        O994   1.259       .  A
C986       C1272   1.471       .  S
O987        C995   1.262       .  A
O988        C995   1.267       .  A
C989        O996   1.265       .  A
C989        O990   1.264       .  A
C989       C1286   1.496       .  S
C991        O993   1.268       .  A
C991        O997   1.262       .  A
C991       C1300   1.491       .  S
C995       C1261   1.478       .  S
In998      O1000   2.204       .  S
In998      O1001   2.269       .  S
In998      O1009   2.244       .  S
In998      O1003   2.251       .  S
In998      O1005   2.243       .  S
In998      O1006   2.255       .  S
In998      O1007   2.216       .  S
In998      O1010   2.225       .  S
C999       O1005   1.266       .  A
C999       O1007   1.259       .  A
C999       C1244   1.470       .  S
O1000      C1008   1.260       .  A
O1001      C1008   1.266       .  A
C1002      O1009   1.266       .  A
C1002      O1003   1.263       .  A
C1002      C1303   1.490       .  S
C1004      O1006   1.268       .  A
C1004      O1010   1.261       .  A
C1008      C1230   1.483       .  S
In1011     O1013   2.230       .  S
In1011     O1014   2.260       .  S
In1011     O1022   2.243       .  S
In1011     O1016   2.275       .  S
In1011     O1018   2.257       .  S
In1011     O1019   2.267       .  S
In1011     O1020   2.218       .  S
In1011     O1023   2.236       .  S
C1012      O1018   1.266       .  A
C1012      O1020   1.259       .  A
C1012      C1247   1.479       .  S
O1013      C1021   1.262       .  A
O1014      C1021   1.265       .  A
C1015      O1022   1.264       .  A
C1015      O1016   1.263       .  A
C1015      C1205   1.493       .  S
C1017      O1019   1.264       .  A
C1017      O1023   1.261       .  A
C1021      C1188   1.485       .  S
In1024     O1026   2.235       .  S
In1024     O1027   2.249       .  S
In1024     O1035   2.245       .  S
In1024     O1029   2.257       .  S
In1024     O1031   2.254       .  S
In1024     O1032   2.278       .  S
In1024     O1033   2.211       .  S
In1024     O1036   2.236       .  S
C1025      O1031   1.268       .  A
C1025      O1033   1.259       .  A
C1025      C1275   1.479       .  S
O1026      C1034   1.262       .  A
O1027      C1034   1.267       .  A
C1028      O1035   1.264       .  A
C1028      O1029   1.264       .  A
C1028      C1216   1.489       .  S
C1030      O1032   1.266       .  A
C1030      O1036   1.261       .  A
C1030      C1202   1.495       .  S
C1034      C1177   1.486       .  S
In1037     O1039   2.235       .  S
In1037     O1040   2.249       .  S
In1037     O1048   2.244       .  S
In1037     O1042   2.252       .  S
In1037     O1044   2.261       .  S
In1037     O1045   2.261       .  S
In1037     O1046   2.205       .  S
In1037     O1049   2.246       .  S
C1038      O1044   1.267       .  A
C1038      O1046   1.257       .  A
C1038      C1132   1.464       .  S
O1039      C1047   1.262       .  A
O1040      C1047   1.265       .  A
C1041      O1048   1.263       .  A
C1041      O1042   1.264       .  A
C1041      C1146   1.489       .  S
C1043      O1045   1.265       .  A
C1043      O1049   1.263       .  A
C1043      C1160   1.494       .  S
C1047      C1174   1.482       .  S
In1050     O1052   2.229       .  S
In1050     O1053   2.243       .  S
In1050     O1061   2.247       .  S
In1050     O1055   2.247       .  S
In1050     O1057   2.251       .  S
In1050     O1058   2.271       .  S
In1050     O1059   2.209       .  S
In1050     O1062   2.237       .  S
C1051      O1057   1.266       .  A
C1051      O1059   1.258       .  A
C1051      C1118   1.472       .  S
O1052      C1060   1.262       .  A
O1053      C1060   1.266       .  A
C1054      O1061   1.264       .  A
C1054      O1055   1.263       .  A
C1054      C1163   1.488       .  S
C1056      O1058   1.266       .  A
C1056      O1062   1.261       .  A
C1060      C1233   1.480       .  S
In1063     O1065   2.220       .  S
In1063     O1066   2.252       .  S
In1063     O1074   2.254       .  S
In1063     O1068   2.257       .  S
In1063     O1070   2.239       .  S
In1063     O1071   2.267       .  S
In1063     O1072   2.233       .  S
In1063     O1075   2.226       .  S
C1064      O1070   1.265       .  A
C1064      O1072   1.260       .  A
C1064      C1135   1.482       .  S
O1065      C1073   1.262       .  A
O1066      C1073   1.265       .  A
C1067      O1074   1.264       .  A
C1067      O1068   1.261       .  A
C1067      C1090   1.488       .  S
C1069      O1071   1.265       .  A
C1069      O1075   1.259       .  A
C1069      C1104   1.491       .  S
C1073      C1258   1.483       .  S
In1076     O1078   2.239       .  S
In1076     O1079   2.254       .  S
In1076     O1087   2.237       .  S
In1076     O1081   2.259       .  S
In1076     O1083   2.253       .  S
In1076     O1084   2.261       .  S
In1076     O1085   2.214       .  S
In1076     O1088   2.239       .  S
C1077      O1083   1.267       .  A
C1077      O1085   1.258       .  A
C1077      C1121   1.473       .  S
O1078      C1086   1.261       .  A
O1079      C1086   1.265       .  A
C1080      O1087   1.264       .  A
C1080      O1081   1.263       .  A
C1080      C1107   1.487       .  S
C1082      O1084   1.266       .  A
C1082      O1088   1.262       .  A
C1086      C1191   1.481       .  S
C1089      C1090   1.402       .  A
C1089      C1094   1.405   1_565  A
C1089      H1096   1.084       .  S
C1090      C1091   1.417       .  A
C1091      C1092   1.407       .  A
C1091      N1098   1.432       .  S
C1092      C1093   1.408   1_565  A
C1092      H1097   1.084   1_565  S
C1093      C1094   1.415       .  A
N1095      H1099   1.045       .  S
N1095      H1100   1.046       .  S
N1098      H1101   1.046       .  S
N1098      H1102   1.045       .  S
C1103      C1104   1.407       .  A
C1103      C1108   1.406       .  A
C1103      H1110   1.084       .  S
C1104      C1105   1.416       .  A
C1105      C1106   1.405       .  A
C1105      N1112   1.438       .  S
C1106      C1107   1.402       .  A
C1106      H1111   1.084       .  S
C1107      C1108   1.417       .  A
C1108      N1109   1.432       .  S
N1109      H1113   1.045       .  S
N1109      H1114   1.045       .  S
N1112      H1115   1.046       .  S
N1112      H1116   1.046       .  S
C1117      C1122   1.400       .  A
C1117      H1124   1.084       .  S
C1119      C1120   1.394       .  A
C1119      N1126   1.433       .  S
C1120      H1125   1.084       .  S
C1122      N1123   1.433       .  S
N1123      H1127   1.045       .  S
N1123      H1128   1.046       .  S
N1126      H1129   1.045       .  S
N1126      H1130   1.045       .  S
C1131      C1132   1.399       .  A
C1131      C1136   1.401       .  A
C1131      H1138   1.085       .  S
C1132      C1133   1.406       .  A
C1133      C1134   1.401       .  A
C1133      N1140   1.432       .  S
C1134      C1135   1.411       .  A
C1134      H1139   1.084       .  S
C1135      C1136   1.415       .  A
C1136      N1137   1.438       .  S
N1137      H1141   1.046       .  S
N1137      H1142   1.046       .  S
N1140      H1143   1.045       .  S
N1140      H1144   1.046       .  S
C1145      C1146   1.407       .  A
C1145      C1150   1.409       .  A
C1145      H1152   1.084       .  S
C1146      C1147   1.412       .  A
C1147      C1148   1.403       .  A
C1147      N1154   1.433       .  S
C1148      C1149   1.406       .  A
C1148      H1153   1.084       .  S
C1149      C1150   1.411       .  A
C1150      N1151   1.432       .  S
N1151      H1155   1.045       .  S
N1154      H1157   1.046       .  S
N1154      H1158   1.046       .  S
C1159      C1160   1.409       .  A
C1159      C1164   1.408       .  A
C1159      H1166   1.083       .  S
C1160      C1161   1.418       .  A
C1161      C1162   1.404       .  A
C1161      N1168   1.432       .  S
C1162      C1163   1.405       .  A
C1162      H1167   1.084       .  S
C1163      C1164   1.413       .  A
C1164      N1165   1.438       .  S
N1165      H1169   1.045       .  S
N1165      H1170   1.046       .  S
N1168      H1171   1.046       .  S
N1168      H1172   1.044       .  S
C1173      C1174   1.405       .  A
C1173      C1178   1.405   1_556  A
C1173      H1180   1.084       .  S
C1174      C1175   1.409       .  A
C1175      C1176   1.405   1_556  A
C1175      N1182   1.432       .  S
C1176      C1177   1.406       .  A
C1176      H1181   1.084       .  S
C1177      C1178   1.411       .  A
C1178      N1179   1.432       .  S
N1179      H1183   1.046       .  S
N1179      H1184   1.045       .  S
N1182      H1185   1.046       .  S
N1182      H1186   1.045       .  S
C1187      C1188   1.405       .  A
C1187      C1192   1.410       .  A
C1187      H1194   1.084       .  S
C1188      C1189   1.411       .  A
C1189      C1190   1.402       .  A
C1189      N1196   1.432       .  S
C1190      C1191   1.401       .  A
C1190      H1195   1.084       .  S
C1191      C1192   1.413       .  A
C1192      N1193   1.438       .  S
N1193      H1197   1.046       .  S
N1193      H1198   1.046       .  S
N1196      H1199   1.046       .  S
N1196      H1200   1.045       .  S
C1201      C1202   1.406       .  A
C1201      C1206   1.406       .  A
C1201      H1208   1.083       .  S
C1202      C1203   1.413       .  A
C1203      C1204   1.414       .  A
C1203      N1210   1.432       .  S
C1204      C1205   1.408       .  A
C1204      H1209   1.084       .  S
C1205      C1206   1.413       .  A
C1206      N1207   1.438       .  S
N1207      H1211   1.045       .  S
N1207      H1212   1.046       .  S
N1210      H1213   1.045       .  S
N1210      H1214   1.046       .  S
C1215      C1216   1.406       .  A
C1215      C1220   1.413       .  A
C1215      H1222   1.083       .  S
C1216      C1217   1.410       .  A
C1217      C1218   1.404   1_655  A
C1217      N1224   1.433       .  S
C1218      C1219   1.407       .  A
C1218      H1223   1.084       .  S
C1219      C1220   1.415   1_455  A
N1221      H1225   1.046       .  S
N1221      H1226   1.045       .  S
N1224      H1227   1.045       .  S
N1224      H1228   1.046       .  S
C1229      C1230   1.405       .  A
C1229      C1234   1.401       .  A
C1229      H1236   1.084       .  S
C1230      C1231   1.412       .  A
C1231      C1232   1.409       .  A
C1231      N1238   1.437       .  S
C1232      C1233   1.407       .  A
C1232      H1237   1.084       .  S
C1233      C1234   1.410       .  A
C1234      N1235   1.438       .  S
N1235      H1239   1.046       .  S
N1235      H1240   1.046       .  S
N1238      H1241   1.045       .  S
N1238      H1242   1.046       .  S
C1243      C1248   1.402       .  A
C1243      H1250   1.084       .  S
C1245      C1246   1.402       .  A
C1245      N1252   1.432       .  S
C1246      H1251   1.084       .  S
C1248      N1249   1.438       .  S
N1249      H1253   1.046       .  S
N1252      H1256   1.045       .  S
C1257      C1258   1.406       .  A
C1257      C1262   1.404   1_556  A
C1257      H1264   1.084       .  S
C1258      C1259   1.413       .  A
C1259      C1260   1.406   1_556  A
C1259      N1266   1.438       .  S
C1260      C1261   1.405       .  A
C1260      H1265   1.084       .  S
C1261      C1262   1.410       .  A
C1262      N1263   1.438       .  S
N1263      H1267   1.046       .  S
N1263      H1268   1.046       .  S
N1266      H1269   1.045       .  S
N1266      H1270   1.047       .  S
C1271      C1272   1.406       .  A
C1271      C1276   1.406       .  A
C1271      H1278   1.084       .  S
C1272      C1273   1.401       .  A
C1273      C1274   1.400       .  A
C1273      N1280   1.432       .  S
C1274      C1275   1.408       .  A
C1274      H1279   1.084       .  S
C1275      C1276   1.411       .  A
C1276      N1277   1.438       .  S
N1277      H1281   1.046       .  S
N1277      H1282   1.045       .  S
N1280      H1283   1.045       .  S
N1280      H1284   1.046       .  S
C1285      C1286   1.404       .  A
C1285      C1290   1.405       .  A
C1285      H1292   1.084       .  S
C1286      C1287   1.419       .  A
C1287      C1288   1.408       .  A
C1287      N1294   1.432       .  S
C1288      C1289   1.407       .  A
C1288      H1293   1.084       .  S
C1289      C1290   1.416       .  A
N1291      H1295   1.045       .  S
N1291      H1296   1.046       .  S
N1294      H1297   1.046       .  S
N1294      H1298   1.044       .  S
C1299      C1300   1.406       .  A
C1299      C1304   1.414       .  A
C1299      H1306   1.083       .  S
C1300      C1301   1.415       .  A
C1301      C1302   1.401       .  A
C1301      N1308   1.433       .  S
C1302      C1303   1.402       .  A
C1302      H1307   1.084       .  S
C1303      C1304   1.417       .  A
C1304      N1305   1.438       .  S
N1305      H1309   1.045       .  S
N1305      H1310   1.047       .  S
N1308      H1311   1.045       .  S
N1308      H1312   1.046       .  S
