geometry optimzed in LAMMPS
_audit_creation_date              2020-12-01 
_audit_creation_method            'lammps2cif' 
_symmetry_space_group_name_H-M    'P1' 
_symmetry_Int_Tables_number       1 
_symmetry_cell_setting            triclinic 
loop_ 
_symmetry_equiv_pos_as_xyz 
  x,y,z 
_cell_length_a                    56.44955719 
_cell_length_b                    56.27212300228093 
_cell_length_c                    56.35862078356964 
_cell_angle_alpha                 89.90042686493112 
_cell_angle_beta                  90.15733031869573 
_cell_angle_gamma                 89.8789478423339 
loop_ 
_atom_site_label 
_atom_site_type_symbol 
_atom_site_fract_x 
_atom_site_fract_y 
_atom_site_fract_z 
_atom_site_charge 
C1          C  0.07963847  0.70554494  0.95197882     0.03700
C2          C  0.07043206  0.71117603  0.92951955    -0.12500
C3          C  0.04838574  0.70273259  0.92208672     0.01200
C4          C  0.03605126  0.68666652  0.93646744    -0.11000
C5          C  0.04544645  0.67979081  0.95853843     0.03700
C6          C  0.06708990  0.68945212  0.96643304    -0.10400
H7          H  0.08045573  0.72235380  0.91754102     0.09300
H8          H  0.01918614  0.67960270  0.93055893     0.06800
H9          H  0.07404277  0.68442633  0.98366726     0.06700
C10         C  0.90597891  0.70742915  0.95102471     0.03700
C11         C  0.91990948  0.69238075  0.96543357    -0.12500
C12         C  0.93800907  0.67841365  0.95534985     0.01200
C13         C  0.94205286  0.67958699  0.93068805    -0.11000
C14         C  0.92838676  0.69475884  0.91619032     0.03700
C15         C  0.91048934  0.70843167  0.92661554    -0.10400
H16         H  0.91619391  0.69095835  0.98423895     0.09300
H17         H  0.95545322  0.66831306  0.92279246     0.06800
H18         H  0.89955063  0.71968534  0.91543773     0.06700
C19         C  0.93010721  0.71064575  0.09898180     0.03700
C20         C  0.94447838  0.69453062  0.08634935    -0.12500
C21         C  0.93505071  0.68170060  0.06711720     0.01200
C22         C  0.91144171  0.68538146  0.06015070    -0.11000
C23         C  0.89717070  0.70139399  0.07258389     0.03700
C24         C  0.90634168  0.71345447  0.09215510    -0.10400
H25         H  0.96273756  0.69167818  0.09163478     0.09300
H26         H  0.90422014  0.67586467  0.04507434     0.06800
H27         H  0.89476338  0.72522320  0.10198784     0.06700
C28         C  0.05146575  0.70000265  0.10920184     0.03700
C29         C  0.03728359  0.68617066  0.09431168    -0.12500
C30         C  0.04454488  0.68148062  0.07098592     0.01200
C31         C  0.06559504  0.69167153  0.06227542    -0.11000
C32         C  0.08022720  0.70541380  0.07732028     0.03700
C33         C  0.07310263  0.70860138  0.10101545    -0.10400
H34         H  0.02081345  0.67886107  0.10092362     0.09300
H35         H  0.07040918  0.68861062  0.04397446     0.06800
H36         H  0.08411723  0.71836563  0.11335720     0.06700
C37         C  0.92959622  0.50319535  0.11114146     0.03700
C38         C  0.90854951  0.49349778  0.10230889    -0.12500
C39         C  0.90117475  0.49763665  0.07884156     0.01200
C40         C  0.91504458  0.51241720  0.06421522    -0.11000
C41         C  0.93615755  0.52251121  0.07296084     0.03700
C42         C  0.94347514  0.51761917  0.09635879    -0.10400
H43         H  0.89791698  0.48238806  0.11383969     0.09300
H44         H  0.90948568  0.51610909  0.04616331     0.06800
H45         H  0.95959868  0.52549790  0.10322873     0.06700
C46         C  0.89603515  0.49839760  0.96424962     0.03700
C47         C  0.90524696  0.48521130  0.94540654    -0.12500
C48         C  0.92864686  0.48844408  0.93773544     0.01200
C49         C  0.94300732  0.50505013  0.94956701    -0.11000
C50         C  0.93368313  0.51886946  0.96806663     0.03700
C51         C  0.91015629  0.51550206  0.97544282    -0.10400
H52         H  0.89384359  0.47260415  0.93642091     0.09300
H53         H  0.96119954  0.50767758  0.94408501     0.06800
H54         H  0.90293030  0.52606134  0.98978341     0.06700
C55         C  0.08532831  0.49895600  0.95499223     0.03700
C56         C  0.07198758  0.51421070  0.96966538    -0.12500
C57         C  0.04827266  0.51973379  0.96395941     0.01200
C58         C  0.03798681  0.51016283  0.94337676    -0.11000
C59         C  0.05135439  0.49556000  0.92837054     0.03700
C60         C  0.07469924  0.48975519  0.93445599    -0.10400
H61         H  0.08018255  0.52235380  0.98502840     0.09300
H62         H  0.02007559  0.51509919  0.93837879     0.06800
H63         H  0.08468006  0.47804368  0.92292937     0.06700
C64         C  0.05359722  0.49849333  0.10933316     0.03700
C65         C  0.03953725  0.51471166  0.09629680    -0.12500
C66         C  0.04652728  0.52197885  0.07339443     0.01200
C67         C  0.06697460  0.51223840  0.06306243    -0.11000
C68         C  0.08075210  0.49585959  0.07577193     0.03700
C69         C  0.07462543  0.49016272  0.09904962    -0.10400
H70         H  0.02311135  0.52141536  0.10357704     0.09300
H71         H  0.07202092  0.51724822  0.04519644     0.06800
H72         H  0.08637366  0.47861109  0.10903837     0.06700
O73         O  0.03846351  0.63976989  0.96797542    -0.74700
O74         O  0.01775905  0.66844065  0.98788217    -0.53600
C75         C  0.03315826  0.66155271  0.97253319     0.79000
O76         O  0.94257369  0.55929060  0.97293721    -0.59300
O77         O  0.96509237  0.53166811  0.99254660    -0.52400
C78         C  0.94805951  0.53779473  0.97860811     0.71000
O79         O  0.94694081  0.63863613  0.96456784    -0.73900
O80         O  0.96460094  0.66771675  0.98668118    -0.54500
C81         C  0.95076509  0.66054008  0.96986781     0.77000
O82         O  0.04114591  0.55991215  0.97214323    -0.59000
O83         O  0.01891944  0.53206649  0.99156738    -0.52200
C84         C  0.03540929  0.53833782  0.97704534     0.73600
Zr85       Zr  0.02763788  0.59996397  0.98160588     2.54700
O86         O  0.02793418  0.59744069  0.93847862    -0.79600
O87         O  0.07072396  0.60145732  0.98370392    -0.93000
Zr88       Zr  0.95777197  0.59934335  0.97952673     2.64700
O89         O  0.96294065  0.59399759  0.93697352    -0.98000
O90         O  0.91484466  0.60161245  0.97598056    -0.80000
O91         O  0.99247578  0.62305713  0.97945333    -0.83400
O92         O  0.99286264  0.57621377  0.98079929    -2.18100
O93         O  0.03781186  0.56203497  0.06524695    -0.66800
O94         O  0.01808021  0.53324456  0.04458876    -0.51300
C95         C  0.03307177  0.54021388  0.06034977     0.72000
O96         O  0.94337232  0.64153350  0.06041906    -0.59700
O97         O  0.96501754  0.66938564  0.04041168    -0.51700
C98         C  0.94893511  0.66309067  0.05531377     0.73800
O99         O  0.94351893  0.56220453  0.06288689    -0.71100
O100        O  0.96507374  0.53336684  0.04416887    -0.49800
C101        C  0.94906620  0.54039676  0.05890943     0.75200
O102        O  0.03669881  0.64159109  0.06334788    -0.66400
O103        O  0.01740208  0.66948614  0.04085377    -0.53600
C104        C  0.03203385  0.66314162  0.05732524     0.73600
Zr105      Zr  0.02592794  0.60156180  0.05151946     2.77500
O106        O  0.02606833  0.60349854  0.09468534    -0.97200
O107        O  0.06892945  0.60171201  0.04836544    -0.78000
Zr108      Zr  0.95571472  0.60152515  0.04959419     2.70100
O109        O  0.95444292  0.60265896  0.09274742    -0.79200
O110        O  0.91280288  0.60161749  0.04503226    -0.98300
Zr111      Zr  0.99129946  0.64705492  0.01437338     2.21500
Zr112      Zr  0.99199873  0.55434073  0.01727108     2.11100
O113        O  0.99089761  0.57848438  0.05203153    -2.47000
O114        O  0.99070350  0.62474576  0.05042867    -0.79000
O115        O  0.02742564  0.57738561  0.01724541    -0.71200
O116        O  0.95599178  0.62371211  0.01382348    -2.32200
O117        O  0.02699560  0.62414485  0.01597826    -2.28400
O118        O  0.95646963  0.57724713  0.01535782    -0.73000
H119        H  0.99317600  0.56559274  0.96732454     0.79000
H120        H  0.94210202  0.63372048  0.01306667     0.80100
H121        H  0.99060494  0.56883878  0.06621315     0.82300
H122        H  0.04070884  0.63438769  0.01607906     0.79900
H123        H  0.90941484  0.60693360  0.99179376     0.43000
H124        H  0.90931468  0.58733371  0.03540862     0.41900
H125        H  0.96525658  0.61576324  0.09718067     0.41600
H126        H  0.01307573  0.59282059  0.09966495     0.39600
H127        H  0.07460984  0.60198559  0.06499765     0.42700
H128        H  0.07429375  0.61465310  0.99473476     0.37500
H129        H  0.01676896  0.60996711  0.93316121     0.43600
H130        H  0.94677894  0.59083963  0.93089307     0.40000
H131        H  0.04074372  0.59516542  0.09962830     0.44900
H132        H  0.07568373  0.60743258  0.96794737     0.43600
H133        H  0.96686474  0.61000673  0.93084146     0.43800
H134        H  0.90669759  0.59775432  0.06103069     0.44100
C135        C  0.58196979  0.02913881  0.10880472     0.03700
C136        C  0.58761544  0.00655497  0.09987769    -0.12500
C137        C  0.58493790  0.00098328  0.07572788     0.01200
C138        C  0.57248610  0.01706871  0.06113255    -0.11000
C139        C  0.56370269  0.03841895  0.07060770     0.03700
C140        C  0.56937480  0.04489727  0.09401478    -0.10400
H141        H  0.59533930  0.99347148  0.11170219     0.09300
H142        H  0.56952712  0.01324151  0.04255619     0.06800
H143        H  0.56416084  0.06227304  0.10033260     0.06700
C144        C  0.58159191  0.03363453  0.91900202     0.03700
C145        C  0.56764009  0.04802690  0.93380673    -0.12500
C146        C  0.56483702  0.04226115  0.95797326     0.01200
C147        C  0.57572025  0.02175978  0.96723779    -0.11000
C148        C  0.58912967  0.00700686  0.95234837     0.03700
C149        C  0.59244828  0.01342038  0.92858405    -0.10400
H150        H  0.55839082  0.06324896  0.92643204     0.09300
H151        H  0.57241637  0.01648016  0.98543374     0.06800
H152        H  0.60318335  0.00215588  0.91728289     0.06700
C153        C  0.59712902  0.18570436  0.95815579     0.03700
C154        C  0.57953471  0.17386075  0.97133547    -0.12500
C155        C  0.57164686  0.15122469  0.96422754     0.01200
C156        C  0.58146632  0.14032685  0.94417184    -0.11000
C157        C  0.59877091  0.15210950  0.93092950     0.03700
C158        C  0.60619803  0.17470211  0.93779268    -0.10400
H159        H  0.57224371  0.18191256  0.98716397     0.09300
H160        H  0.57542254  0.12289077  0.93870624     0.06800
H161        H  0.61903728  0.18389351  0.92686020     0.06700
C162        C  0.58944140  0.19222145  0.07388138     0.03700
C163        C  0.57280080  0.17866787  0.06116489    -0.12500
C164        C  0.57032137  0.15417266  0.06583269     0.01200
C165        C  0.58476364  0.14325959  0.08305191    -0.11000
C166        C  0.60067875  0.15686070  0.09664114     0.03700
C167        C  0.60289410  0.18119186  0.09164895    -0.10400
H168        H  0.56164696  0.18714957  0.04794488     0.09300
H169        H  0.58290224  0.12440103  0.08633705     0.06800
H170        H  0.61497893  0.19194057  0.10201418     0.06700
C171        C  0.39223011  0.19532886  0.94821417     0.03700
C172        C  0.40763976  0.18168869  0.96240095    -0.12500
C173        C  0.41236600  0.15777358  0.95669722     0.01200
C174        C  0.40135345  0.14745732  0.93665551    -0.11000
C175        C  0.38585226  0.16104653  0.92232737     0.03700
C176        C  0.38223322  0.18504863  0.92795583    -0.10400
H177        H  0.41562470  0.18948827  0.97805724     0.09300
H178        H  0.40480462  0.12902333  0.93231473     0.06800
H179        H  0.37116350  0.19594336  0.91653939     0.06700
C180        C  0.38801279  0.04468859  0.91861630     0.03700
C181        C  0.40270889  0.05810745  0.93347042    -0.12500
C182        C  0.40747146  0.05017472  0.95666260     0.01200
C183        C  0.39740907  0.02888839  0.96488157    -0.11000
C184        C  0.38240719  0.01573121  0.95001400     0.03700
C185        C  0.37806741  0.02362050  0.92690075    -0.10400
H186        H  0.41068542  0.07434394  0.92691895     0.09300
H187        H  0.40143681  0.02248709  0.98259506     0.06800
H188        H  0.36667792  0.01336334  0.91526117     0.06700
C189        C  0.37617922  0.05050260  0.10342947     0.03700
C190        C  0.39343777  0.06235662  0.08982975    -0.12500
C191        C  0.40477510  0.05046664  0.07096089     0.01200
C192        C  0.39873397  0.02677522  0.06583172    -0.11000
C193        C  0.38137677  0.01503281  0.07920130     0.03700
C194        C  0.37066596  0.02684372  0.09811730    -0.10400
H195        H  0.39811366  0.08055419  0.09397639     0.09300
H196        H  0.40723951  0.01766003  0.05121457     0.06800
H197        H  0.35780749  0.01742455  0.10884888     0.06700
C198        C  0.38161499  0.18474270  0.07772538     0.03700
C199        C  0.37553891  0.17624008  0.10014977    -0.12500
C200        C  0.38632924  0.15598514  0.10957757     0.01200
C201        C  0.40388392  0.14409227  0.09650642    -0.11000
C202        C  0.41006062  0.15243417  0.07373193     0.03700
C203        C  0.39889800  0.17278183  0.06444759    -0.10400
H204        H  0.36251257  0.18571786  0.11064369     0.09300
H205        H  0.41239205  0.12841240  0.10380403     0.06800
H206        H  0.40380571  0.17940975  0.04707179     0.06700
O207        O  0.52461515  0.04887599  0.06175495    -0.74700
O208        O  0.55433126  0.06801687  0.04198307    -0.53600
C209        C  0.54657233  0.05273224  0.05709615     0.79000
O210        O  0.44714628  0.05658615  0.96538807    -0.59300
O211        O  0.41944113  0.07647160  0.98730310    -0.52400
C212        C  0.42574070  0.06198984  0.97076627     0.71000
O213        O  0.52552805  0.05182056  0.96650437    -0.73900
O214        O  0.55458468  0.06912370  0.98886591    -0.54500
C215        C  0.54730592  0.05526087  0.97217837     0.77000
O216        O  0.44516738  0.05455381  0.06196567    -0.59000
O217        O  0.41854451  0.07794879  0.04199026    -0.52200
C218        C  0.42400924  0.06191444  0.05747543     0.73600
Zr219      Zr  0.48564923  0.06312012  0.04944726     2.54700
O220        O  0.48303957  0.02009273  0.04574226    -0.79600
O221        O  0.48455867  0.06156259  0.09262135    -0.93000
Zr222      Zr  0.48673857  0.06500389  0.97954322     2.64700
O223        O  0.48426862  0.02180566  0.98117220    -0.98000
O224        O  0.48741417  0.06608151  0.93637933    -0.80000
O225        O  0.50943371  0.06188597  0.01483183    -0.83400
O226        O  0.46281082  0.06484923  0.01408545    -2.18100
O227        O  0.45004651  0.14301468  0.06632608    -0.66800
O228        O  0.42150767  0.12841823  0.04142688    -0.51300
C229        C  0.42836635  0.14036745  0.05965626     0.72000
O230        O  0.53111909  0.14662162  0.97193835    -0.59700
O231        O  0.55753727  0.12194173  0.99060899    -0.51700
C232        C  0.55223220  0.13930847  0.97666927     0.73800
O233        O  0.45181414  0.14921268  0.96735388    -0.71100
O234        O  0.42227132  0.12869051  0.98599956    -0.49800
C235        C  0.42986258  0.14423450  0.97094686     0.75200
O236        O  0.52981170  0.14714034  0.05883686    -0.66400
O237        O  0.55697492  0.12248417  0.04153182    -0.53600
C238        C  0.55119697  0.14041303  0.05449784     0.73600
Zr239      Zr  0.48946826  0.13332452  0.05111525     2.77500
O240        O  0.48776442  0.17657295  0.05165792    -0.97200
O241        O  0.49393560  0.13056450  0.09400503    -0.78000
Zr242      Zr  0.49046762  0.13525102  0.98116617     2.70100
O243        O  0.49260052  0.17835955  0.98378581    -0.79200
O244        O  0.49264613  0.13417761  0.93803863    -0.98300
Zr245      Zr  0.53413415  0.09616580  0.01595725     2.21500
Zr246      Zr  0.44189923  0.10182977  0.01430397     2.11100
O247        O  0.46658507  0.13629615  0.01575812    -2.47000
O248        O  0.51304758  0.13289913  0.01649130    -0.79000
O249        O  0.46459102  0.09953667  0.04998843    -0.71200
O250        O  0.51165919  0.09881036  0.98011324    -2.32200
O251        O  0.51081119  0.09689298  0.05135006    -2.28400
O252        O  0.46557255  0.10143161  0.97940539    -0.73000
H253        H  0.45190712  0.05165773  0.01368681     0.79000
H254        H  0.52186705  0.09869831  0.96639654     0.80100
H255        H  0.45710352  0.15064185  0.01593804     0.82300
H256        H  0.52080269  0.09618146  0.06529959     0.79900
H257        H  0.47869641  0.08077733  0.93214291     0.43000
H258        H  0.47774117  0.12643571  0.93295580     0.41900
H259        H  0.50351763  0.18137706  0.99722949     0.41600
H260        H  0.47225479  0.18072550  0.04451590     0.39600
H261        H  0.48378751  0.11700259  0.09862065     0.42700
H262        H  0.49732843  0.07239982  0.09785781     0.37500
H263        H  0.49420702  0.01605720  0.03283733     0.43600
H264        H  0.46970637  0.01842452  0.99031722     0.40000
H265        H  0.48609006  0.18068280  0.06864663     0.44900
H266        H  0.49042677  0.04547212  0.09672149     0.43600
H267        H  0.48033927  0.01701308  0.96473167     0.43800
H268        H  0.49079632  0.15096792  0.93307751     0.44100
C269        C  0.06808323  0.03766025  0.62587959     0.03700
C270        C  0.05330420  0.05097695  0.61062851    -0.12500
C271        C  0.03189770  0.04125186  0.60207403     0.01200
C272        C  0.02472411  0.01852095  0.60979048    -0.11000
C273        C  0.03930803  0.00506312  0.62511983     0.03700
C274        C  0.06120677  0.01451815  0.63198808    -0.10400
H275        H  0.05832952  0.06875995  0.60531563     0.09300
H276        H  0.00791101  0.01145237  0.60381598     0.06800
H277        H  0.07314479  0.00361526  0.64246265     0.06700
C278        C  0.88555766  0.02252522  0.61134770     0.03700
C279        C  0.89529924  0.00056068  0.61778217    -0.12500
C280        C  0.91838558  0.99439153  0.61133435     0.01200
C281        C  0.93250494  0.01095533  0.59916530    -0.11000
C282        C  0.92312258  0.03334152  0.59296319     0.03700
C283        C  0.89963037  0.03893399  0.59894655    -0.10400
H284        H  0.88494937  0.98812314  0.62815692     0.09300
H285        H  0.95028954  0.00613053  0.59377519     0.06800
H286        H  0.89213264  0.05579604  0.59336216     0.06700
C287        C  0.91791705  0.19243885  0.61770435     0.03700
C288        C  0.93051277  0.17794729  0.60177004    -0.12500
C289        C  0.92410186  0.15401060  0.59857257     0.01200
C290        C  0.90454672  0.14475524  0.61072523    -0.11000
C291        C  0.89120569  0.15947625  0.62564552     0.03700
C292        C  0.89818161  0.18296312  0.62937604    -0.10400
H293        H  0.94526565  0.18518790  0.59187330     0.09300
H294        H  0.89903627  0.12656572  0.60768233     0.06800
H295        H  0.88826995  0.19375730  0.64181072     0.06700
C296        C  0.03717337  0.18239493  0.62983723     0.03700
C297        C  0.02264315  0.16926725  0.61440018    -0.12500
C298        C  0.03059985  0.14739147  0.60525926     0.01200
C299        C  0.05321568  0.13883908  0.61163380    -0.11000
C300        C  0.06763628  0.15198911  0.62710185     0.03700
C301        C  0.05943464  0.17354374  0.63622204    -0.10400
H302        H  0.00579353  0.17655472  0.60864226     0.09300
H303        H  0.05991052  0.12253903  0.60388808     0.06800
H304        H  0.07083799  0.18394669  0.64771404     0.06700
C305        C  0.92523731  0.19073697  0.41323951     0.03700
C306        C  0.93825579  0.17678067  0.42962993    -0.12500
C307        C  0.92855710  0.15551634  0.43878299     0.01200
C308        C  0.90639646  0.14755666  0.43054630    -0.11000
C309        C  0.89365662  0.16100946  0.41386048     0.03700
C310        C  0.90259987  0.18290818  0.40649331    -0.10400
H311        H  0.95576717  0.18221603  0.43526134     0.09300
H312        H  0.89923628  0.13087065  0.43692089     0.06800
H313        H  0.89169571  0.19380236  0.39493714     0.06700
C314        C  0.88643165  0.04273107  0.41499819     0.03700
C315        C  0.89982696  0.05539902  0.43182639    -0.12500
C316        C  0.92411732  0.05047113  0.43494628     0.01200
C317        C  0.93501945  0.03295784  0.42099247    -0.11000
C318        C  0.92176465  0.01993675  0.40435221     0.03700
C319        C  0.89753947  0.02494663  0.40160970    -0.10400
H320        H  0.89128272  0.06860656  0.44287686     0.09300
H321        H  0.95360872  0.02889761  0.42371378     0.06800
H322        H  0.88707484  0.01463023  0.38922123     0.06700
C323        C  0.07488466  0.04241524  0.41988063     0.03700
C324        C  0.06089163  0.05527793  0.43595837    -0.12500
C325        C  0.03867184  0.04643469  0.44279889     0.01200
C326        C  0.03045480  0.02481254  0.43366359    -0.11000
C327        C  0.04437329  0.01213775  0.41760223     0.03700
C328        C  0.06637154  0.02095470  0.41073185    -0.10400
H329        H  0.06739862  0.07175901  0.44343773     0.09300
H330        H  0.01345919  0.01779329  0.43918104     0.06800
H331        H  0.07688835  0.01102108  0.39806413     0.06700
C332        C  0.03722649  0.19645541  0.42503942     0.03700
C333        C  0.02580068  0.18195143  0.44173917    -0.12500
C334        C  0.03409916  0.15865266  0.44593057     0.01200
C335        C  0.05379405  0.15003345  0.43329224    -0.11000
C336        C  0.06516820  0.16461732  0.41657442     0.03700
C337        C  0.05696894  0.18781225  0.41297135    -0.10400
H338        H  0.01034157  0.18853785  0.45102859     0.09300
H339        H  0.06005975  0.13205175  0.43628108     0.06800
H340        H  0.06584079  0.19925668  0.40030201     0.06700
O341        O  0.93175883  0.04565719  0.55446749    -0.74700
O342        O  0.94992071  0.06513250  0.58511426    -0.53600
C343        C  0.93596790  0.04907591  0.57660243     0.79000
O344        O  0.02882280  0.05276335  0.48246229    -0.59300
O345        O  0.00910608  0.07379280  0.45373683    -0.52400
C346        C  0.02471712  0.05865472  0.46079554     0.71000
O347        O  0.02421096  0.04926285  0.56177231    -0.73900
O348        O  0.00205538  0.06868585  0.58957615    -0.54500
C349        C  0.01834675  0.05385009  0.58336817     0.77000
O350        O  0.93038184  0.05600698  0.47574801    -0.59000
O351        O  0.95513441  0.07486600  0.44982159    -0.52200
C352        C  0.93737875  0.06134393  0.45469603     0.73600
Zr353      Zr  0.94311062  0.06263710  0.51659459     2.54700
O354        O  0.94282705  0.01972972  0.51100155    -0.79600
O355        O  0.90000524  0.06520916  0.51686867    -0.93000
Zr356      Zr  0.01300874  0.06156636  0.52152391     2.64700
O357        O  0.00816870  0.01861761  0.51970489    -0.98000
O358        O  0.05588505  0.05789214  0.52450504    -0.80000
O359        O  0.97661365  0.06052996  0.54219090    -0.83400
O360        O  0.97957358  0.06244471  0.49577152    -2.18100
O361        O  0.93407373  0.14603153  0.47918332    -0.66800
O362        O  0.95682673  0.12689302  0.45165084    -0.51300
C363        C  0.94078737  0.14202035  0.45770602     0.72000
O364        O  0.02360910  0.14181056  0.56474028    -0.59700
O365        O  0.00139329  0.12036507  0.59104061    -0.51700
C366        C  0.01748782  0.13577332  0.58587101     0.73800
O367        O  0.02585010  0.14783121  0.48544125    -0.71100
O368        O  0.00827765  0.12699153  0.45539886    -0.49800
C369        C  0.02206042  0.14338485  0.46335030     0.75200
O370        O  0.93325025  0.14620217  0.55897411    -0.66400
O371        O  0.94876900  0.12168259  0.58751832    -0.53600
C372        C  0.93621856  0.13960217  0.58061929     0.73600
Zr373      Zr  0.94348811  0.13236350  0.51953066     2.77500
O374        O  0.94084824  0.17554997  0.52044231    -0.97200
O375        O  0.90064932  0.12741597  0.51870825    -0.78000
Zr376      Zr  0.01351133  0.13194098  0.52389726     2.70100
O377        O  0.01315182  0.17504593  0.52725533    -0.79200
O378        O  0.05654803  0.12972953  0.52587986    -0.98300
Zr379      Zr  0.97582257  0.09494693  0.56680399     2.21500
Zr380      Zr  0.98124244  0.09919561  0.47441701     2.11100
O381        O  0.97982923  0.13377512  0.49881285    -2.47000
O382        O  0.97717887  0.13132742  0.54487144    -0.79000
O383        O  0.94436080  0.09854517  0.49476278    -0.71200
O384        O  0.01248680  0.09587989  0.54571630    -2.32200
O385        O  0.94147711  0.09645719  0.54172555    -2.28400
O386        O  0.01541218  0.09765819  0.49953856    -0.73000
H387        H  0.98002384  0.04907378  0.48505720     0.79000
H388        H  0.02583556  0.09543651  0.55647702     0.80100
H389        H  0.98026681  0.14811406  0.48939669     0.82300
H390        H  0.92719698  0.09616687  0.55115135     0.79900
H391        H  0.06163664  0.07445638  0.52555663     0.43000
H392        H  0.06087136  0.11716876  0.51440215     0.41900
H393        H  0.99614276  0.17936324  0.52706318     0.41600
H394        H  0.95249739  0.18106224  0.50855319     0.39600
H395        H  0.89735949  0.11958377  0.50332975     0.42700
H396        H  0.89590318  0.07205141  0.53249837     0.37500
H397        H  0.92582717  0.01545906  0.51039269     0.43600
H398        H  0.02277697  0.01215582  0.52706510     0.40000
H399        H  0.92520890  0.17931281  0.51336281     0.44900
H400        H  0.89458625  0.04851224  0.51778947     0.43600
H401        H  0.99552697  0.01507541  0.53132373     0.43800
H402        H  0.06207252  0.14466039  0.51842477     0.44100
C403        C  0.98851437  0.38301800  0.31522347     0.04100
S404        S  0.96130135  0.36811547  0.32267939    -0.09900
C405        C  0.97649327  0.34604336  0.33989713    -0.01100
C406        C  0.99992520  0.34838798  0.34363575    -0.01100
S407        S  0.01528935  0.37209847  0.32906218    -0.09900
C408        C  0.00164073  0.42927037  0.26542826    -0.01100
C409        C  0.97780567  0.43051302  0.26548761    -0.01100
S410        S  0.96199192  0.41365206  0.28732047    -0.09900
C411        C  0.98889590  0.40110711  0.29936744     0.04100
S412        S  0.01637498  0.41310624  0.28857385    -0.09900
C413        C  0.25022711  0.10990116  0.30395567     0.04100
S414        S  0.23432389  0.13638459  0.31226425    -0.09900
C415        C  0.21264667  0.11966071  0.32832157    -0.01100
C416        C  0.21627351  0.09623814  0.33156535    -0.01100
S417        S  0.23989426  0.08207414  0.31593529    -0.09900
C418        C  0.29742977  0.10041366  0.25488224    -0.01100
C419        C  0.29980460  0.12403692  0.25779339    -0.01100
S420        S  0.28198751  0.13843331  0.27978667    -0.09900
C421        C  0.26870324  0.11070091  0.28879002     0.04100
S422        S  0.28048610  0.08392700  0.27594676    -0.09900
C423        C  0.26910313  0.39305294  0.01339265     0.04100
S424        S  0.26335257  0.41174024  0.98801059    -0.09900
C425        C  0.23650646  0.42320776  0.00066704    -0.01100
C426        C  0.23011175  0.41565717  0.02242648    -0.01100
S427        S  0.24921705  0.39577164  0.03818715    -0.09900
C428        C  0.31255567  0.34010718  0.02355609    -0.01100
C429        C  0.31975789  0.34670808  0.00167656    -0.01100
S430        S  0.30676640  0.37307642  0.98895630    -0.09900
C431        C  0.28710241  0.37714718  0.01377864     0.04100
S432        S  0.29192805  0.35840343  0.03915875    -0.09900
C433        C  0.68884621  0.09967776  0.29341251     0.04100
S434        S  0.67217082  0.07402180  0.28405981    -0.09900
C435        C  0.66208306  0.08879173  0.25761472    -0.01100
C436        C  0.66757790  0.11188458  0.25462591    -0.01100
S437        S  0.68441515  0.12672254  0.27689376    -0.09900
C438        C  0.74037914  0.10789800  0.33886190    -0.01100
C439        C  0.73431772  0.08531265  0.34418184    -0.01100
S440        S  0.70974845  0.07222003  0.32862295    -0.09900
C441        C  0.70460093  0.09883174  0.31151046     0.04100
S442        S  0.72210796  0.12447005  0.31891418    -0.09900
C443        C  0.98937775  0.83190637  0.30295861     0.04100
S444        S  0.96313685  0.84963986  0.30743647    -0.09900
C445        C  0.97881890  0.87040186  0.32541605    -0.01100
C446        C  0.00157075  0.86588500  0.33091055    -0.01100
S447        S  0.01575508  0.84029386  0.31877097    -0.09900
C448        C  0.00229735  0.78229763  0.25680013    -0.01100
C449        C  0.97921909  0.78646936  0.25249809    -0.01100
S450        S  0.96300046  0.80544345  0.27185233    -0.09900
C451        C  0.98940918  0.81350551  0.28770032     0.04100
S452        S  0.01595686  0.79678768  0.28151402    -0.09900
C453        C  0.26287600  0.09980425  0.71837254     0.04100
S454        S  0.25055486  0.12686913  0.70639307    -0.09900
C455        C  0.22682953  0.11136903  0.69199931    -0.01100
C456        C  0.22561275  0.08758059  0.69430023    -0.01100
S457        S  0.24891840  0.07234382  0.70970842    -0.09900
C458        C  0.31169204  0.08819900  0.76626219    -0.01100
C459        C  0.30971613  0.11199857  0.76791805    -0.01100
S460        S  0.29255280  0.12746061  0.74595642    -0.09900
C461        C  0.28130145  0.10008618  0.73378374     0.04100
S462        S  0.29504514  0.07298218  0.74388911    -0.09900
C463        C  0.98307584  0.38942558  0.74496520     0.04100
S464        S  0.95604987  0.39653390  0.76042347    -0.09900
C465        C  0.97174429  0.41158373  0.78354696    -0.01100
C466        C  0.99518794  0.41508916  0.78111636    -0.01100
S467        S  0.01009366  0.40212802  0.75630004    -0.09900
C468        C  0.99537145  0.34098557  0.69723287    -0.01100
C469        C  0.97149469  0.34089507  0.69727292    -0.01100
S470        S  0.95604954  0.36312508  0.71382956    -0.09900
C471        C  0.98317014  0.37443978  0.72624403     0.04100
S472        S  0.01042348  0.36385244  0.71341770    -0.09900
C473        C  0.28490374  0.82545912  0.01391746     0.04100
S474        S  0.29313457  0.84040046  0.98698642    -0.09900
C475        C  0.30889479  0.86287827  0.00289384    -0.01100
C476        C  0.31243417  0.86020535  0.02646411    -0.01100
S477        S  0.29874655  0.83539159  0.04095812    -0.09900
C478        C  0.23380652  0.78083992  0.02600267    -0.01100
C479        C  0.23315826  0.78135069  0.00213236    -0.01100
S480        S  0.25558881  0.79740814  0.98661516    -0.09900
C481        C  0.26845875  0.80807068  0.01387234     0.04100
S482        S  0.25762636  0.79538642  0.04108543    -0.09900
C483        C  0.69454857  0.37705589  0.02015787     0.04100
S484        S  0.68173741  0.36658812  0.04756550    -0.09900
C485        C  0.66419836  0.34455672  0.03267278    -0.01100
C486        C  0.66730438  0.34171450  0.00914236    -0.01100
S487        S  0.68447059  0.36314977  0.99321832    -0.09900
C488        C  0.74405695  0.42390529  0.00666367    -0.01100
C489        C  0.74681406  0.42151003  0.03028478    -0.01100
S490        S  0.72535109  0.40462233  0.04654289    -0.09900
C491        C  0.71134227  0.39420939  0.01974372     0.04100
S492        S  0.72125474  0.40717076  0.99221022    -0.09900
C493        C  0.98168108  0.80512423  0.70933645     0.04100
S494        S  0.95574384  0.81396599  0.69283618    -0.09900
C495        C  0.97026214  0.83990336  0.68130357    -0.01100
C496        C  0.99345846  0.84305993  0.68599302    -0.01100
S497        S  0.00871237  0.82093016  0.70298020    -0.09900
C498        C  0.99019829  0.76390145  0.76440707    -0.01100
C499        C  0.96756140  0.75833527  0.75918829    -0.01100
S500        S  0.95429385  0.77186183  0.73340794    -0.09900
C501        C  0.98095136  0.78815798  0.72640474     0.04100
S502        S  0.00672195  0.78175590  0.74412122    -0.09900
C503        C  0.68812382  0.08496714  0.73856959     0.04100
S504        S  0.66802190  0.06055677  0.74296506    -0.09900
C505        C  0.65512881  0.07435377  0.76856068    -0.01100
C506        C  0.66376906  0.09548448  0.77569867    -0.01100
S507        S  0.68494454  0.11032721  0.75764762    -0.09900
C508        C  0.74254828  0.09433964  0.69755543    -0.01100
C509        C  0.73854875  0.07112965  0.69359290    -0.01100
S510        S  0.71224450  0.05794318  0.70550721    -0.09900
C511        C  0.70535384  0.08440650  0.72206908     0.04100
S512        S  0.72303626  0.11031439  0.71649468    -0.09900
C513        C  0.69431887  0.81880891  0.00604316     0.04100
S514        S  0.68450001  0.83289715  0.97904218    -0.09900
C515        C  0.66607480  0.85318101  0.99490014    -0.01100
C516        C  0.66528594  0.85183402  0.01870539    -0.01100
S517        S  0.68086127  0.82835963  0.03335919    -0.09900
C518        C  0.74613550  0.77494609  0.01860946     0.03700
C519        C  0.74947356  0.77898483  0.99534733    -0.01100
S520        S  0.72750643  0.79521035  0.97915513    -0.09900
C521        C  0.71168074  0.80232116  0.00591746     0.04100
S522        S  0.72068415  0.78734606  0.03272170    -0.09900
C523        C  0.03338652  0.26307085  0.41920577    -0.27100
C524        C  0.02280196  0.26527693  0.39667073     0.02500
C525        C  0.01393966  0.24469037  0.38546270     0.30600
C526        C  0.01681047  0.22241014  0.39622848    -0.18800
C527        C  0.02836419  0.22016206  0.41813186    -0.28200
C528        C  0.03628026  0.24069753  0.42987669     0.44700
C529        C  0.02170658  0.28883089  0.38454981     0.05900
O530        O  0.00374681  0.24606741  0.36334222    -0.56800
H531        H  0.01124401  0.20662453  0.38674679     0.18800
O532        O  0.04867042  0.23888739  0.45076098    -0.63500
H533        H  0.04056921  0.27857014  0.42800142     0.17200
C534        C  0.01193350  0.30888683  0.39586912     0.29500
C535        C  0.00776384  0.32973846  0.38286965    -0.24400
C536        C  0.01288463  0.33082626  0.35853571    -0.23700
C537        C  0.02493469  0.31179166  0.34785703     0.40900
C538        C  0.02931575  0.29099988  0.36086727    -0.26100
O539        O  0.00407596  0.30748434  0.41883643    -0.58000
H540        H  0.99835212  0.34427493  0.39123198     0.16600
O541        O  0.03006000  0.31227983  0.32409111    -0.59400
H542        H  0.03759229  0.27605759  0.35204807     0.15000
H543        H  0.03642568  0.23776660  0.46329086     0.46900
H544        H  0.01529917  0.31724564  0.42822457     0.42300
H545        H  0.04477892  0.32176880  0.32278568     0.45700
H546        H  0.98814668  0.23812413  0.36464631     0.37200
C547        C  0.17068178  0.15231694  0.36905890    -0.27100
C548        C  0.14876946  0.14297941  0.36167402     0.02500
C549        C  0.14786963  0.12904192  0.34093080     0.30600
C550        C  0.16877030  0.12348675  0.32887791    -0.18800
C551        C  0.19081735  0.13130881  0.33735451    -0.28200
C552        C  0.19162327  0.14655349  0.35703911     0.44700
C553        C  0.12707835  0.14735142  0.37593283     0.05900
O554        O  0.12696555  0.11907675  0.33348789    -0.56800
H555        H  0.16795637  0.11162654  0.31376866     0.18800
O556        O  0.21292987  0.15415582  0.36590182    -0.63500
H557        H  0.17165447  0.16354408  0.38461676     0.17200
C558        C  0.12658997  0.14285161  0.40059168     0.29500
C559        C  0.10590106  0.14730442  0.41362610    -0.24400
C560        C  0.08557830  0.15628008  0.40237287    -0.23700
C561        C  0.08577020  0.15966795  0.37757946     0.40900
C562        C  0.10645162  0.15562529  0.36468072    -0.26100
O563        O  0.14598942  0.13336750  0.41190655    -0.58000
H564        H  0.10597698  0.14443216  0.43264019     0.16600
O565        O  0.06586663  0.16738509  0.36582525    -0.59400
H566        H  0.10640996  0.15925069  0.34580325     0.15000
H567        H  0.21631615  0.16916276  0.35732996     0.46900
H568        H  0.15243157  0.14638570  0.42183830     0.42300
H569        H  0.05669701  0.15278015  0.36234865     0.45700
H570        H  0.12255128  0.12781710  0.31882537     0.37200
C571        C  0.18063387  0.08076022  0.38558368    -0.27100
C572        C  0.16248921  0.06731303  0.37538198     0.02500
C573        C  0.16441700  0.05971587  0.35168648     0.30600
C574        C  0.18354936  0.06726911  0.33784491    -0.18800
C575        C  0.20079205  0.08229222  0.34756576    -0.28200
C576        C  0.19993617  0.08794149  0.37191285     0.44700
C577        C  0.14110548  0.06209409  0.38925380     0.05900
O578        O  0.14684982  0.04634759  0.34149760    -0.56800
H579        H  0.18395809  0.06293492  0.31912851     0.18800
O580        O  0.21695057  0.10209405  0.38196809    -0.63500
H581        H  0.17940366  0.08635168  0.40392961     0.17200
C582        C  0.13875225  0.04027303  0.40102463     0.29500
C583        C  0.11750833  0.03472603  0.41232947    -0.24400
C584        C  0.09838930  0.05078813  0.41205403    -0.23700
C585        C  0.10123745  0.07321661  0.40130033     0.40900
C586        C  0.12255819  0.07870269  0.38991790    -0.26100
O587        O  0.15670538  0.02382825  0.40057556    -0.58000
H588        H  0.11560773  0.01743357  0.42059581     0.16600
O589        O  0.08297394  0.08933757  0.40074376    -0.59400
H590        H  0.12432450  0.09553467  0.38079325     0.15000
H591        H  0.22983361  0.09105969  0.38673010     0.46900
H592        H  0.16737616  0.02829177  0.41383681     0.42300
H593        H  0.07349190  0.08515432  0.38651991     0.45700
H594        H  0.15099252  0.02963900  0.34532561     0.37200
C595        C  0.01526101  0.90457134  0.38283947    -0.27100
C596        C  0.02717192  0.92325245  0.37149899     0.02500
C597        C  0.03540363  0.92007516  0.34809415     0.30600
C598        C  0.02906222  0.89971540  0.33545659    -0.18800
C599        C  0.01504581  0.88227156  0.34614767    -0.28200
C600        C  0.00949311  0.88398471  0.37038415     0.44700
C601        C  0.02990340  0.94618575  0.38395273     0.05900
O602        O  0.04862417  0.93724575  0.33706117    -0.56800
H603        H  0.03355557  0.89837791  0.31682449     0.18800
O604        O  0.99630224  0.86672748  0.38132444    -0.63500
H605        H  0.00920447  0.90650333  0.40096065     0.17200
C606        C  0.02285465  0.96772218  0.37315630     0.29500
C607        C  0.02661039  0.98923250  0.38489546    -0.24400
C608        C  0.03651897  0.98948587  0.40764566    -0.23700
C609        C  0.04213795  0.96802563  0.41909334     0.40900
C610        C  0.03895428  0.94651769  0.40718354    -0.26100
O611        O  0.01264197  0.96792166  0.35103623    -0.58000
H612        H  0.02230301  0.00579211  0.37601218     0.16600
O613        O  0.05192952  0.96802496  0.44138587    -0.59400
H614        H  0.04412033  0.93010968  0.41587293     0.15000
H615        H  0.00748538  0.85342239  0.38424646     0.46900
H616        H  0.99613262  0.97339911  0.35352674     0.42300
H617        H  0.03827437  0.96702888  0.45237531     0.45700
H618        H  0.06529286  0.93346681  0.34120980     0.37200
C619        C  0.82824519  0.07318694  0.39932592    -0.27100
C620        C  0.81276629  0.05368669  0.39793648     0.02500
C621        C  0.82113979  0.03103208  0.40436826     0.30600
C622        C  0.84487233  0.02793808  0.41100926    -0.18800
C623        C  0.86069458  0.04723944  0.41134098    -0.28200
C624        C  0.85205341  0.07010967  0.40582981     0.44700
C625        C  0.78872915  0.05701164  0.38766709     0.05900
O626        O  0.80641181  0.01169829  0.40363246    -0.56800
H627        H  0.85112157  0.01023982  0.41536953     0.18800
O628        O  0.86695069  0.08933936  0.40557647    -0.63500
H629        H  0.82212656  0.09070409  0.39427599     0.17200
C630        C  0.77308999  0.07409619  0.39693077     0.29500
C631        C  0.75287230  0.08066758  0.38404373    -0.24400
C632        C  0.74860663  0.07115960  0.36139794    -0.23700
C633        C  0.76243956  0.05189929  0.35359207     0.40900
C634        C  0.78246499  0.04496643  0.36672466    -0.26100
O635        O  0.77800303  0.08511793  0.41806747    -0.58000
H636        H  0.74193529  0.09508870  0.39055418     0.16600
O637        O  0.75772716  0.04117294  0.33224881    -0.59400
H638        H  0.79411161  0.03146094  0.35955260     0.15000
H639        H  0.87266694  0.09054315  0.38899342     0.46900
H640        H  0.78157036  0.10184804  0.41390044     0.42300
H641        H  0.76925156  0.04795842  0.32087389     0.45700
H642        H  0.79803827  0.01174954  0.41907829     0.37200
C643        C  0.93484361  0.97551790  0.35538584    -0.27100
C644        C  0.94736190  0.95787322  0.36782324     0.02500
C645        C  0.95386925  0.96205338  0.39162871     0.30600
C646        C  0.94627366  0.98281176  0.40309824    -0.18800
C647        C  0.93243883  0.99978611  0.39105772    -0.28200
C648        C  0.92759059  0.99639142  0.36670827     0.44700
C649        C  0.95331486  0.93517142  0.35577460     0.05900
O650        O  0.96819201  0.94625290  0.40353338    -0.56800
H651        H  0.95060543  0.98523670  0.42167317     0.18800
O652        O  0.91543425  0.01319546  0.35384947    -0.63500
H653        H  0.93019790  0.97286287  0.33691514     0.17200
C654        C  0.94701511  0.91306688  0.36579894     0.29500
C655        C  0.95375884  0.89189074  0.35468662    -0.24400
C656        C  0.96688472  0.89238051  0.33365108    -0.23700
C657        C  0.97190826  0.91435109  0.32282416     0.40900
C658        C  0.96503030  0.93553341  0.33381705    -0.26100
O659        O  0.93465180  0.91192542  0.38667761    -0.58000
H660        H  0.94982412  0.87505791  0.36314629     0.16600
O661        O  0.98484032  0.91532564  0.30227675    -0.59400
H662        H  0.96958240  0.95230317  0.32556354     0.15000
H663        H  0.92698191  0.02613703  0.35097565     0.46900
H664        H  0.91786691  0.91466426  0.38220656     0.42300
H665        H  0.97364742  0.91075336  0.28949440     0.45700
H666        H  0.95850298  0.93995492  0.41677511     0.37200
C667        C  0.95286017  0.25240479  0.40397265    -0.27100
C668        C  0.94511750  0.25770574  0.38077367     0.02500
C669        C  0.93265583  0.24024182  0.36806563     0.30600
C670        C  0.92808947  0.21818751  0.37838982    -0.18800
C671        C  0.93442292  0.21315612  0.40210101    -0.28200
C672        C  0.94740244  0.23049277  0.41475199     0.44700
C673        C  0.95075223  0.28098849  0.36946105     0.05900
O674        O  0.92437140  0.24468129  0.34557841    -0.56800
H675        H  0.91888141  0.20510407  0.36775930     0.18800
O676        O  0.95440045  0.22658037  0.43773701    -0.63500
H677        H  0.96307169  0.26535796  0.41383312     0.17200
C678        C  0.94603323  0.30275992  0.38094199     0.29500
C679        C  0.95262557  0.32429928  0.37025553    -0.24400
C680        C  0.96381667  0.32445462  0.34807791    -0.23700
C681        C  0.96715850  0.30289560  0.33595194     0.40900
C682        C  0.96090230  0.28143877  0.34670650    -0.26100
O683        O  0.93541402  0.30317038  0.40278232    -0.58000
H684        H  0.95018159  0.34079140  0.37983770     0.16600
O685        O  0.97812955  0.30250756  0.31426833    -0.59400
H686        H  0.96469334  0.26501929  0.33746102     0.15000
H687        H  0.94114434  0.23247791  0.44763266     0.46900
H688        H  0.91816550  0.30360860  0.39942349     0.42300
H689        H  0.96570175  0.30714635  0.30267741     0.45700
H690        H  0.90825561  0.25136006  0.34779005     0.37200
C691        C  0.84702159  0.14644168  0.36781759    -0.27100
C692        C  0.82705164  0.14187910  0.38184758     0.02500
C693        C  0.82943171  0.14234692  0.40680350     0.30600
C694        C  0.85149579  0.14746301  0.41722519    -0.18800
C695        C  0.87122784  0.15257399  0.40305679    -0.28200
C696        C  0.86887561  0.15178240  0.37816283     0.44700
C697        C  0.80459855  0.13479862  0.36993013     0.05900
O698        O  0.81059527  0.13690465  0.42111084    -0.56800
H699        H  0.85304928  0.14800581  0.43638055     0.18800
O700        O  0.88810214  0.15563669  0.36380285    -0.63500
H701        H  0.84567186  0.14589849  0.34864123     0.17200
C702        C  0.78273211  0.14603075  0.37469807     0.29500
C703        C  0.76188969  0.13782369  0.36380377    -0.24400
C704        C  0.76266903  0.11884888  0.34771208    -0.23700
C705        C  0.78474748  0.10904247  0.34149881     0.40900
C706        C  0.80533699  0.11667296  0.35286106    -0.26100
O707        O  0.78152912  0.16501999  0.38985208    -0.58000
H708        H  0.74504978  0.14584640  0.36836884     0.16600
O709        O  0.78629516  0.09139811  0.32483884    -0.59400
H710        H  0.82197606  0.10808022  0.34857108     0.15000
H711        H  0.88545146  0.17148840  0.35652885     0.46900
H712        H  0.78447755  0.17917315  0.37978309     0.42300
H713        H  0.78542076  0.09965336  0.30930507     0.45700
H714        H  0.80613958  0.15203456  0.42893833     0.37200
C715        C  0.02613244  0.28197550  0.68920592    -0.27100
C716        C  0.02203861  0.27770197  0.66494239     0.02500
C717        C  0.01291652  0.29630023  0.65075879     0.30600
C718        C  0.00679833  0.31806413  0.66115831    -0.18800
C719        C  0.00899543  0.32150695  0.68571369    -0.28200
C720        C  0.01957682  0.30361683  0.69962043     0.44700
C721        C  0.02544689  0.25328825  0.65525162     0.05900
O722        O  0.00757056  0.29258064  0.62729134    -0.56800
H723        H  0.99851463  0.33164452  0.65030558     0.18800
O724        O  0.02208534  0.30650706  0.72366083    -0.63500
H725        H  0.03343094  0.26805922  0.70036211     0.17200
C726        C  0.03821051  0.24915399  0.63415281     0.29500
C727        C  0.04054989  0.22602906  0.62532787    -0.24400
C728        C  0.03086437  0.20662895  0.63752423    -0.23700
C729        C  0.01857152  0.21050888  0.65879287     0.40900
C730        C  0.01580409  0.23371096  0.66744322    -0.26100
O731        O  0.04932601  0.26739432  0.62251758    -0.58000
H732        H  0.05083095  0.22307766  0.60938415     0.16600
O733        O  0.01046150  0.19161895  0.67186269    -0.59400
H734        H  0.00610652  0.23640986  0.68378485     0.15000
H735        H  0.00772667  0.29929135  0.73073306     0.46900
H736        H  0.06458070  0.26959076  0.63099392     0.42300
H737        H  0.99294856  0.19250973  0.67095876     0.45700
H738        H  0.01815766  0.30334150  0.61827346     0.37200
C739        C  0.13444870  0.15126258  0.62960790    -0.27100
C740        C  0.13854429  0.13754230  0.65004644     0.02500
C741        C  0.11914657  0.12674401  0.66153576     0.30600
C742        C  0.09607110  0.13035636  0.65292740    -0.18800
C743        C  0.09202973  0.14460014  0.63294861    -0.28200
C744        C  0.11137588  0.15500139  0.62118820     0.44700
C745        C  0.16298748  0.13499453  0.65956395     0.05900
O746        O  0.12256305  0.11350344  0.68174393    -0.56800
H747        H  0.08121733  0.12278209  0.66242522     0.18800
O748        O  0.10779999  0.16941742  0.60185110    -0.63500
H749        H  0.14909504  0.15985200  0.62068094     0.17200
C750        C  0.18137534  0.12579142  0.64543100     0.29500
C751        C  0.20351697  0.12088421  0.65561226    -0.24400
C752        C  0.20750452  0.12469679  0.67991555    -0.23700
C753        C  0.18995047  0.13602320  0.69345038     0.40900
C754        C  0.16781359  0.14099487  0.68329268    -0.26100
O755        O  0.17717705  0.11934127  0.62234210    -0.58000
H756        H  0.21689841  0.11206084  0.64503676     0.16600
O757        O  0.19339517  0.13999531  0.71720210    -0.59400
H758        H  0.15403321  0.14863587  0.69425062     0.15000
H759        H  0.10563243  0.18561077  0.60843264     0.46900
H760        H  0.18444632  0.13205144  0.61258879     0.42300
H761        H  0.20074389  0.15595586  0.71813813     0.45700
H762        H  0.11533479  0.09779297  0.67852678     0.37200
C763        C  0.94033599  0.30476006  0.65022609    -0.27100
C764        C  0.94323706  0.28175966  0.65948920     0.02500
C765        C  0.95215140  0.27884680  0.68266863     0.30600
C766        C  0.95926542  0.29864328  0.69572541    -0.18800
C767        C  0.95799559  0.32147980  0.68583608    -0.28200
C768        C  0.94777122  0.32462479  0.66325816     0.44700
C769        C  0.93735587  0.26071973  0.64496630     0.05900
O770        O  0.95471035  0.25662756  0.69239888    -0.56800
H771        H  0.96707869  0.29607056  0.71311644     0.18800
O772        O  0.94601448  0.34689229  0.65344544    -0.63500
H773        H  0.93326624  0.30723083  0.63250240     0.17200
C774        C  0.91401978  0.25650976  0.63742591     0.29500
C775        C  0.90824644  0.23483311  0.62678831    -0.24400
C776        C  0.92551907  0.21702523  0.62358961    -0.23700
C777        C  0.94928250  0.22210640  0.62951510     0.40900
C778        C  0.95499864  0.24384239  0.64006554    -0.26100
O779        O  0.89641409  0.27265802  0.64209344    -0.58000
H780        H  0.88993958  0.23149607  0.62204786     0.16600
O781        O  0.96686656  0.20556309  0.62637168    -0.59400
H782        H  0.97312731  0.24720824  0.64532955     0.15000
H783        H  0.95870781  0.34770109  0.64134532     0.46900
H784        H  0.89425699  0.28168570  0.62711440     0.42300
H785        H  0.96477387  0.19387798  0.63937458     0.45700
H786        H  0.93946432  0.25338434  0.70046545     0.37200
C787        C  0.82691261  0.15397085  0.64290235    -0.27100
C788        C  0.82783623  0.13551043  0.65964087     0.02500
C789        C  0.84991290  0.12512565  0.66539930     0.30600
C790        C  0.87041343  0.13253318  0.65361411    -0.18800
C791        C  0.86935188  0.15091567  0.63689704    -0.28200
C792        C  0.84748267  0.16186722  0.63175399     0.44700
C793        C  0.80543503  0.12643508  0.66976323     0.05900
O794        O  0.85144411  0.10699919  0.68165927    -0.56800
H795        H  0.88723623  0.12420496  0.65782773     0.18800
O796        O  0.84605143  0.18032568  0.61586494    -0.63500
H797        H  0.81013906  0.16229925  0.63848741     0.17200
C798        C  0.80206086  0.12459790  0.69445498     0.29500
C799        C  0.78121959  0.11462954  0.70334073    -0.24400
C800        C  0.76341530  0.10684093  0.68786751    -0.23700
C801        C  0.76604419  0.11016241  0.66326998     0.40900
C802        C  0.78706591  0.11961204  0.65435754    -0.26100
O803        O  0.81895339  0.13254590  0.71003719    -0.58000
H804        H  0.77912206  0.11253902  0.72233254     0.16600
O805        O  0.74833453  0.10388348  0.64780243    -0.59400
H806        H  0.78919512  0.12128782  0.63532407     0.15000
H807        H  0.84660573  0.17281730  0.59997015     0.46900
H808        H  0.81598325  0.14984796  0.71158382     0.42300
H809        H  0.73624013  0.11661348  0.64916156     0.45700
H810        H  0.86035062  0.11361883  0.69531829     0.37200
C811        C  0.91994253  0.92770102  0.61954933    -0.27100
C812        C  0.93760677  0.92529952  0.63688706     0.02500
C813        C  0.95062274  0.94547116  0.64388046     0.30600
C814        C  0.94550216  0.96777631  0.63401671    -0.18800
C815        C  0.92698534  0.97036651  0.61764327    -0.28200
C816        C  0.91445351  0.95005703  0.61008182     0.44700
C817        C  0.94222717  0.90174705  0.64773062     0.05900
O818        O  0.96830709  0.94353316  0.66044019    -0.56800
H819        H  0.95516088  0.98324152  0.64010746     0.18800
O820        O  0.89617268  0.95207527  0.59411885    -0.63500
H821        H  0.90987905  0.91232244  0.61392311     0.17200
C822        C  0.93841629  0.89783099  0.67210810     0.29500
C823        C  0.94534329  0.87630428  0.68252594    -0.24400
C824        C  0.95639004  0.85864044  0.66893874    -0.23700
C825        C  0.95847599  0.86175674  0.64426019     0.40900
C826        C  0.95114963  0.88320253  0.63374648    -0.26100
O827        O  0.92886617  0.91531434  0.68606459    -0.58000
H828        H  0.94374000  0.87409535  0.70155723     0.16600
O829        O  0.96811410  0.84405569  0.63056200    -0.59400
H830        H  0.95354053  0.88579946  0.61484982     0.15000
H831        H  0.90363707  0.95039626  0.57830404     0.46900
H832        H  0.91148064  0.91309828  0.68490192     0.42300
H833        H  0.98134145  0.85144072  0.62169912     0.45700
H834        H  0.96168658  0.95048980  0.67516167     0.37200
C835        C  0.82082483  0.01596620  0.62837363    -0.27100
C836        C  0.81701992  0.03742511  0.64026635     0.02500
C837        C  0.83454077  0.05509949  0.63965298     0.30600
C838        C  0.85648262  0.05048721  0.62928252    -0.18800
C839        C  0.86105399  0.02840713  0.61875272    -0.28200
C840        C  0.84257583  0.01149594  0.61734038     0.44700
C841        C  0.79543482  0.04115308  0.65449457     0.05900
O842        O  0.83041369  0.07683414  0.64964073    -0.56800
H843        H  0.87020470  0.06388429  0.63031911     0.18800
O844        O  0.84578469  0.99033889  0.60572745    -0.63500
H845        H  0.80719378  0.00244172  0.62822635     0.17200
C846        C  0.77301399  0.04339614  0.64376052     0.29500
C847        C  0.75355186  0.05075586  0.65732628    -0.24400
C848        C  0.75646570  0.05632338  0.68140454    -0.23700
C849        C  0.77846046  0.05214074  0.69247686     0.40900
C850        C  0.79779070  0.04473345  0.67899710    -0.26100
O851        O  0.77033834  0.04008573  0.61980508    -0.58000
H852        H  0.73671754  0.05405851  0.64864286     0.16600
O853        O  0.78169035  0.05728642  0.71604344    -0.59400
H854        H  0.81496696  0.04289166  0.68745570     0.15000
H855        H  0.84052793  0.99337730  0.58919397     0.46900
H856        H  0.77404663  0.05570212  0.61253238     0.42300
H857        H  0.77794328  0.04233905  0.72456793     0.45700
H858        H  0.82430664  0.08683326  0.63646539     0.37200
C859        C  0.16138434  0.07087590  0.69015336    -0.27100
C860        C  0.15963431  0.06251671  0.66668181     0.02500
C861        C  0.18075171  0.05901726  0.65368703     0.30600
C862        C  0.20272317  0.06511560  0.66366836    -0.18800
C863        C  0.20406063  0.07454536  0.68663778    -0.28200
C864        C  0.18331261  0.07639971  0.70023163     0.44700
C865        C  0.13577551  0.05742351  0.65624418     0.05900
O866        O  0.18014753  0.05022223  0.63102528    -0.56800
H867        H  0.21858106  0.06383476  0.65296011     0.18800
O868        O  0.18410957  0.08540396  0.72282069    -0.63500
H869        H  0.14562715  0.07392586  0.70061309     0.17200
C870        C  0.11850869  0.04528480  0.66957032     0.29500
C871        C  0.09612863  0.04101846  0.65997084    -0.24400
C872        C  0.09061022  0.04702928  0.63633863    -0.23700
C873        C  0.10766703  0.05949176  0.62296510     0.40900
C874        C  0.12985604  0.06493046  0.63307755    -0.26100
O875        O  0.12351680  0.03665926  0.69180738    -0.58000
H876        H  0.08326901  0.03189038  0.67091254     0.16600
O877        O  0.10351339  0.06505603  0.59962206    -0.59400
H878        H  0.14256742  0.07476972  0.62260487     0.15000
H879        H  0.18912318  0.07189352  0.73299230     0.46900
H880        H  0.13045733  0.02067850  0.68916303     0.42300
H881        H  0.10036590  0.08240360  0.59942328     0.45700
H882        H  0.17891540  0.03274634  0.63290265     0.37200
C883        C  0.02637838  0.89083600  0.65193269    -0.27100
C884        C  0.01899654  0.91136593  0.66411377     0.02500
C885        C  0.00619733  0.90869858  0.68543968     0.30600
C886        C  0.99971921  0.88604478  0.69328646    -0.18800
C887        C  0.00553719  0.86576469  0.68016574    -0.28200
C888        C  0.01981353  0.86807020  0.65991082     0.44700
C889        C  0.02402334  0.93537400  0.65407730     0.05900
O890        O  0.99824505  0.92817955  0.69770849    -0.56800
H891        H  0.98886450  0.88439001  0.70902941     0.18800
O892        O  0.02723896  0.84818440  0.64791677    -0.63500
H893        H  0.03687843  0.89249014  0.63595435     0.17200
C894        C  0.03450626  0.95322812  0.66803339     0.29500
C895        C  0.03797379  0.97594483  0.65866903    -0.24400
C896        C  0.03238908  0.98131167  0.63486087    -0.23700
C897        C  0.02229621  0.96330367  0.62068687     0.40900
C898        C  0.01797698  0.94067973  0.63038732    -0.26100
O899        O  0.04198571  0.94859055  0.69075591    -0.58000
H900        H  0.04564587  0.98937033  0.67008546     0.16600
O901        O  0.01718217  0.96730950  0.59722204    -0.59400
H902        H  0.00991297  0.92717982  0.61933391     0.15000
H903        H  0.02162575  0.85009594  0.63134430     0.46900
H904        H  0.05718330  0.93990076  0.68901590     0.42300
H905        H  0.03232897  0.96471998  0.58872513     0.45700
H906        H  0.00610681  0.92740417  0.71345452     0.37200
C907        C  0.35301841  0.13738369  0.22080206    -0.27100
C908        C  0.34225568  0.14723899  0.20057540     0.02500
C909        C  0.31843536  0.15490370  0.20203852     0.30600
C910        C  0.30512084  0.15016920  0.22247893    -0.18800
C911        C  0.31532249  0.13788678  0.24159851    -0.28200
C912        C  0.33981838  0.13310311  0.24133448     0.44700
C913        C  0.35521404  0.14735631  0.17758992     0.05900
O914        O  0.30755744  0.16556826  0.18300697    -0.56800
H915        H  0.28629689  0.15396873  0.22244113     0.18800
O916        O  0.35038618  0.12180010  0.26015833    -0.63500
H917        H  0.37127063  0.13145159  0.22019447     0.17200
C918        C  0.37842383  0.15643705  0.17559393     0.29500
C919        C  0.38973851  0.15682876  0.15345836    -0.24400
C920        C  0.37824691  0.14816189  0.13315945    -0.23700
C921        C  0.35566234  0.13795370  0.13535593     0.40900
C922        C  0.34437848  0.13755229  0.15739217    -0.26100
O923        O  0.38978432  0.16596512  0.19488382    -0.58000
H924        H  0.40686694  0.16532700  0.15184749     0.16600
O925        O  0.34407138  0.12929004  0.11577093    -0.59400
H926        H  0.32685427  0.12998268  0.15856135     0.15000
H927        H  0.35636828  0.13473985  0.27045893     0.46900
H928        H  0.38383934  0.18251770  0.19602318     0.42300
H929        H  0.33372515  0.14246503  0.11025290     0.45700
H930        H  0.31022116  0.18283202  0.18523145     0.37200
C931        C  0.34387732  0.29511995  0.06270995    -0.27100
C932        C  0.33854360  0.27383690  0.05087519     0.02500
C933        C  0.32288564  0.27431913  0.03135075     0.30600
C934        C  0.31349587  0.29588573  0.02344849    -0.18800
C935        C  0.31976177  0.31726241  0.03453981    -0.28200
C936        C  0.33457136  0.31677753  0.05463958     0.44700
C937        C  0.34980050  0.25121480  0.05829200     0.05900
O938        O  0.31723450  0.25390196  0.01935900    -0.56800
H939        H  0.30205172  0.29608843  0.00797895     0.18800
O940        O  0.34070020  0.33744115  0.06594722    -0.63500
H941        H  0.35556413  0.29498054  0.07798408     0.17200
C942        C  0.37464813  0.24875261  0.05906025     0.29500
C943        C  0.38483424  0.22663210  0.06417567    -0.24400
C944        C  0.37053649  0.20695595  0.06925633    -0.23700
C945        C  0.34570804  0.20946349  0.06880489     0.40900
C946        C  0.33553299  0.23143903  0.06322436    -0.26100
O947        O  0.38911462  0.26769482  0.05427916    -0.58000
H948        H  0.40395561  0.22500740  0.06489143     0.16600
O949        O  0.33130735  0.19033648  0.07320381    -0.59400
H950        H  0.31640566  0.23305822  0.06274995     0.15000
H951        H  0.35532177  0.34293851  0.05793778     0.46900
H952        H  0.39454655  0.27346690  0.06998922     0.42300
H953        H  0.32457260  0.19314268  0.08919620     0.45700
H954        H  0.33207090  0.24892533  0.01138434     0.37200
C955        C  0.32743356  0.06537233  0.14664493    -0.27100
C956        C  0.34019560  0.07382462  0.16628095     0.02500
C957        C  0.36487642  0.07743248  0.16394055     0.30600
C958        C  0.37643707  0.07128902  0.14275595    -0.18800
C959        C  0.36364884  0.06184791  0.12359600    -0.28200
C960        C  0.33882111  0.05990575  0.12540555     0.44700
C961        C  0.32762252  0.07819374  0.18911243     0.05900
O962        O  0.37796833  0.08618904  0.18249724    -0.56800
H963        H  0.39552991  0.07286861  0.14171504     0.18800
O964        O  0.32559790  0.05148949  0.10678372    -0.63500
H965        H  0.30859638  0.06209639  0.14793513     0.17200
C966        C  0.30574072  0.09039306  0.18968958     0.29500
C967        C  0.29497385  0.09532142  0.21141284    -0.24400
C968        C  0.30582504  0.08881021  0.23284898    -0.23700
C969        C  0.32669558  0.07524746  0.23244689     0.40900
C970        C  0.33733090  0.06979077  0.21061614    -0.26100
O971        O  0.29563861  0.09922509  0.16931872    -0.58000
H972        H  0.27886441  0.10583989  0.21161050     0.16600
O973        O  0.33705572  0.06791321  0.25328425    -0.59400
H974        H  0.35349806  0.05940012  0.21056634     0.15000
H975        H  0.32208789  0.06563412  0.09685324     0.46900
H976        H  0.28073627  0.09017219  0.16712263     0.42300
H977        H  0.35284770  0.07558552  0.25378136     0.45700
H978        H  0.38082904  0.10310472  0.17856517     0.37200
C979        C  0.37995993  0.94847877  0.06802825    -0.27100
C980        C  0.35564555  0.94463546  0.06386927     0.02500
C981        C  0.34004463  0.96428731  0.06470512     0.30600
C982        C  0.34885742  0.98701053  0.06956613    -0.18800
C983        C  0.37315016  0.99081459  0.07316914    -0.28200
C984        C  0.38874527  0.97133483  0.07247203     0.44700
C985        C  0.34689348  0.92040422  0.05758662     0.05900
O986        O  0.31614951  0.96143002  0.06097286    -0.56800
H987        H  0.33660882  0.00185219  0.07033136     0.18800
O988        O  0.41249525  0.97436699  0.07662036    -0.63500
H989        H  0.39223045  0.93366244  0.06803028     0.17200
C990        C  0.35853134  0.90657479  0.04025480     0.29500
C991        C  0.34853330  0.88525401  0.03249563    -0.24400
C992        C  0.32613037  0.87801604  0.04052282    -0.23700
C993        C  0.31547655  0.89059514  0.05922960     0.40900
C994        C  0.32596869  0.91148387  0.06777036    -0.26100
O995        O  0.37879240  0.91445390  0.02945799    -0.58000
H996        H  0.35728580  0.87543588  0.01850315     0.16600
O997        O  0.29383451  0.88383825  0.06786686    -0.59400
H998        H  0.31714153  0.92125734  0.08173309     0.15000
H999        H  0.41470203  0.97100055  0.09376421     0.46900
H1000       H  0.37374184  0.92822357  0.01968146     0.42300
H1001       H  0.29741607  0.87452385  0.08239860     0.45700
H1002       H  0.31187483  0.97212404  0.04761984     0.37200
C1003       C  0.38211869  0.04611245  0.85214442    -0.27100
C1004       C  0.36083404  0.05886272  0.84959135     0.02500
C1005       C  0.35032860  0.06914863  0.86981958     0.30600
C1006       C  0.36067846  0.06599601  0.89215718    -0.18800
C1007       C  0.38139403  0.05264617  0.89472170    -0.28200
C1008       C  0.39234076  0.04287116  0.87458995     0.44700
C1009       C  0.34954431  0.06150004  0.82593528     0.05900
O1010       O  0.32938059  0.08141002  0.86799176    -0.56800
H1011       H  0.35182003  0.07298366  0.90770691     0.18800
O1012       O  0.41212408  0.02886536  0.87689544    -0.63500
H1013       H  0.39031736  0.03789184  0.83685934     0.17200
C1014       C  0.36198608  0.07148338  0.80673956     0.29500
C1015       C  0.34978767  0.07782469  0.78602504    -0.24400
C1016       C  0.32522307  0.07446780  0.78423650    -0.23700
C1017       C  0.31326201  0.06232473  0.80238007     0.40900
C1018       C  0.32548242  0.05577403  0.82303171    -0.26100
O1019       O  0.38549223  0.07722193  0.80889052    -0.58000
H1020       H  0.35915933  0.08711943  0.77207312     0.16600
O1021       O  0.28934728  0.05831355  0.80075847    -0.59400
H1022       H  0.31582899  0.04739425  0.83736344     0.15000
H1023       H  0.42558562  0.04012807  0.87773565     0.46900
H1024       H  0.39411417  0.06464792  0.80011259     0.42300
H1025       H  0.28186116  0.07049271  0.81100698     0.45700
H1026       H  0.33219779  0.09701530  0.87560941     0.37200
C1027       C  0.33564021  0.96933468  0.96084871    -0.27100
C1028       C  0.34927878  0.94977347  0.96816843     0.02500
C1029       C  0.37408315  0.95228192  0.97025683     0.30600
C1030       C  0.38473132  0.97422612  0.96538217    -0.18800
C1031       C  0.37095889  0.99363775  0.95800673    -0.28200
C1032       C  0.34623385  0.99114828  0.95605825     0.44700
C1033       C  0.33711972  0.92740406  0.97478219     0.05900
O1034       O  0.38796687  0.93362305  0.97759555    -0.56800
H1035       H  0.40380679  0.97591046  0.96674092     0.18800
O1036       O  0.33227140  0.00996921  0.94927701    -0.63500
H1037       H  0.31661192  0.96771051  0.95890604     0.17200
C1038       C  0.31805717  0.92784117  0.99090629     0.29500
C1039       C  0.30743512  0.90669036  0.99803348    -0.24400
C1040       C  0.31622337  0.88474668  0.99021719    -0.23700
C1041       C  0.33440736  0.88420346  0.97323383     0.40900
C1042       C  0.34469884  0.90549679  0.96553531    -0.26100
O1043       O  0.31055607  0.94872306  0.00092985    -0.58000
H1044       H  0.29344178  0.90728593  0.01115076     0.16600
O1045       O  0.34354634  0.86296148  0.96562522    -0.59400
H1046       H  0.35901986  0.90484434  0.95280766     0.15000
H1047       H  0.32940232  0.01910407  0.96402960     0.46900
H1048       H  0.32330662  0.95320515  0.01218284     0.42300
H1049       H  0.33506274  0.85946795  0.95060823     0.45700
H1050       H  0.39612038  0.92790884  0.96311791     0.37200
C1051       C  0.34184951  0.30187175  0.95700299    -0.27100
C1052       C  0.36072866  0.29150205  0.96976176     0.02500
C1053       C  0.36951741  0.30362235  0.98985435     0.30600
C1054       C  0.35782665  0.32388737  0.99825023    -0.18800
C1055       C  0.33660972  0.33173493  0.98768362    -0.28200
C1056       C  0.32968026  0.32168690  0.96591762     0.44700
C1057       C  0.36914837  0.26698760  0.96372257     0.05900
O1058       O  0.38820238  0.29476533  0.00270879    -0.56800
H1059       H  0.36398172  0.33202308  0.01453177     0.18800
O1060       O  0.30966971  0.32948101  0.95445786    -0.63500
H1061       H  0.33549344  0.29366243  0.94083371     0.17200
C1062       C  0.35269890  0.24857642  0.95946354     0.29500
C1063       C  0.36066236  0.22547514  0.95482668    -0.24400
C1064       C  0.38490935  0.21989117  0.95470779    -0.23700
C1065       C  0.40140166  0.23807588  0.95920440     0.40900
C1066       C  0.39351089  0.26139631  0.96348558    -0.26100
O1067       O  0.32874972  0.25305201  0.95958525    -0.58000
H1068       H  0.34768536  0.21172036  0.95140191     0.16600
O1069       O  0.42524541  0.23338845  0.95896129    -0.59400
H1070       H  0.40653696  0.27519002  0.96639003     0.15000
H1071       H  0.31532288  0.34150509  0.94291260     0.46900
H1072       H  0.32181710  0.24221995  0.97157759     0.42300
H1073       H  0.43020476  0.23589582  0.94228020     0.45700
H1074       H  0.38153302  0.28134414  0.01190141     0.37200
C1075       C  0.33794839  0.15190563  0.87582974    -0.27100
C1076       C  0.35006553  0.13972619  0.85782905     0.02500
C1077       C  0.37346235  0.13182108  0.86253609     0.30600
C1078       C  0.38481202  0.13783285  0.88400481    -0.18800
C1079       C  0.37291271  0.15104203  0.90142720    -0.28200
C1080       C  0.34882879  0.15685473  0.89757269     0.44700
C1081       C  0.33826665  0.13558086  0.83430217     0.05900
O1082       O  0.38556413  0.11866516  0.84604393    -0.56800
H1083       H  0.40316681  0.13281287  0.88665561     0.18800
O1084       O  0.33583018  0.16810801  0.91477321    -0.63500
H1085       H  0.32005875  0.15824350  0.87293276     0.17200
C1086       C  0.31453587  0.12761283  0.83258753     0.29500
C1087       C  0.30470664  0.12235878  0.81032006    -0.24400
C1088       C  0.31807971  0.12457861  0.78956291    -0.23700
C1089       C  0.34089936  0.13439830  0.79091494     0.40900
C1090       C  0.35083811  0.13977990  0.81312246    -0.26100
O1091       O  0.30096756  0.12443473  0.85254894    -0.58000
H1092       H  0.28698027  0.11506331  0.80937853     0.16600
O1093       O  0.35423498  0.13723061  0.77082112    -0.59400
H1094       H  0.36864666  0.14686656  0.81379060     0.15000
H1095       H  0.33238037  0.15568956  0.92677884     0.46900
H1096       H  0.29506501  0.10785190  0.85198430     0.42300
H1097       H  0.34904959  0.15263790  0.76397543     0.45700
H1098       H  0.38739339  0.10264636  0.85316994     0.37200
C1099       C  0.61171970  0.30539523  0.04558921    -0.27100
C1100       C  0.62206145  0.28822055  0.06037941     0.02500
C1101       C  0.64469175  0.29252336  0.07012214     0.30600
C1102       C  0.65770958  0.31248650  0.06286721    -0.18800
C1103       C  0.64818845  0.32843351  0.04622055    -0.28200
C1104       C  0.62437298  0.32572106  0.03905129     0.44700
C1105       C  0.61032831  0.26486117  0.06344902     0.05900
O1106       O  0.65508906  0.27617897  0.08494000    -0.56800
H1107       H  0.67590470  0.31439955  0.06870543     0.18800
O1108       O  0.61402502  0.34188975  0.02400835    -0.63500
H1109       H  0.59414478  0.30256471  0.03836494     0.17200
C1110       C  0.60274638  0.25700314  0.08583604     0.29500
C1111       C  0.59436917  0.23376963  0.08865065    -0.24400
C1112       C  0.59341441  0.21795905  0.06932246    -0.23700
C1113       C  0.59980219  0.22628965  0.04664210     0.40900
C1114       C  0.60807647  0.24963003  0.04384091    -0.26100
O1115       O  0.60422127  0.27162638  0.10521536    -0.58000
H1116       H  0.58941989  0.22775702  0.10622434     0.16600
O1117       O  0.59933064  0.21140193  0.02740316    -0.59400
H1118       H  0.61390847  0.25550902  0.02652990     0.15000
H1119       H  0.60822417  0.35481911  0.03443033     0.46900
H1120       H  0.58896285  0.28038219  0.10552069     0.42300
H1121       H  0.61535053  0.20416993  0.02673045     0.45700
H1122       H  0.65267452  0.28251101  0.10116681     0.37200
C1123       C  0.61346098  0.12812009  0.15633842    -0.27100
C1124       C  0.63506240  0.13902090  0.16236632     0.02500
C1125       C  0.64702602  0.15222056  0.14481584     0.30600
C1126       C  0.63671112  0.15545199  0.12247154    -0.18800
C1127       C  0.61378795  0.14698848  0.11746470    -0.28200
C1128       C  0.60257576  0.13238319  0.13440210     0.44700
C1129       C  0.64445733  0.13663294  0.18701823     0.05900
O1130       O  0.66817494  0.16319667  0.14957203    -0.56800
H1131       H  0.64610223  0.16605514  0.10949529     0.18800
O1132       O  0.58018953  0.12377547  0.13063550    -0.63500
H1133       H  0.60442861  0.11690876  0.16905799     0.17200
C1134       C  0.62911115  0.13793426  0.20676794     0.29500
C1135       C  0.63721958  0.13134217  0.22927760    -0.24400
C1136       C  0.66089862  0.12485188  0.23277221    -0.23700
C1137       C  0.67700398  0.12669264  0.21391396     0.40900
C1138       C  0.66863203  0.13190734  0.19104527    -0.26100
O1139       O  0.60595157  0.14490536  0.20415844    -0.58000
H1140       H  0.62479865  0.13036576  0.24387198     0.16600
O1141       O  0.70066449  0.12215908  0.21759998    -0.59400
H1142       H  0.68093569  0.13095978  0.17639221     0.15000
H1143       H  0.58252104  0.10697579  0.12589130     0.46900
H1144       H  0.60595065  0.16224532  0.20727508     0.42300
H1145       H  0.70480043  0.10860876  0.20717096     0.45700
H1146       H  0.66386730  0.17859785  0.15693816     0.37200
C1147       C  0.65791446  0.27669166  0.99669282    -0.27100
C1148       C  0.63842445  0.27711053  0.98119212     0.02500
C1149       C  0.62993820  0.29919874  0.97280496     0.30600
C1150       C  0.64035620  0.32040732  0.98077993    -0.18800
C1151       C  0.65925474  0.31976580  0.99698310    -0.28200
C1152       C  0.66862160  0.29767673  0.00410326     0.44700
C1153       C  0.62731654  0.25421160  0.97436903     0.05900
O1154       O  0.61125708  0.30023820  0.95723177    -0.56800
H1155       H  0.63304857  0.33731971  0.97514299     0.18800
O1156       O  0.68753680  0.29646813  0.01939225    -0.63500
H1157       H  0.66457481  0.25997924  0.00358641     0.17200
C1158       C  0.64150805  0.23523757  0.96652282     0.29500
C1159       C  0.63146310  0.21299643  0.96251277    -0.24400
C1160       C  0.60700112  0.20919493  0.96518428    -0.23700
C1161       C  0.59261946  0.22833516  0.97259790     0.40900
C1162       C  0.60285950  0.25055611  0.97737362    -0.26100
O1163       O  0.66511170  0.23858544  0.96173857    -0.58000
H1164       H  0.64299800  0.19865782  0.95693290     0.16600
O1165       O  0.56859712  0.22570828  0.97494440    -0.59400
H1166       H  0.59171576  0.26488498  0.98371218     0.15000
H1167       H  0.70171233  0.29881639  0.00931388     0.46900
H1168       H  0.67382787  0.22897774  0.97369108     0.42300
H1169       H  0.56205321  0.22814354  0.95877326     0.45700
H1170       H  0.61854188  0.30209060  0.94134629     0.37200
C1171       C  0.60558056  0.13013869  0.86808057    -0.27100
C1172       C  0.63029722  0.12775996  0.86645352     0.02500
C1173       C  0.64442764  0.13208808  0.88660147     0.30600
C1174       C  0.63377219  0.13910407  0.90784375    -0.18800
C1175       C  0.60909217  0.14158229  0.90939736    -0.28200
C1176       C  0.59493260  0.13677454  0.88944779     0.44700
C1177       C  0.64099743  0.12082073  0.84356503     0.05900
O1178       O  0.66868514  0.13105154  0.88520276    -0.56800
H1179       H  0.64485092  0.14320739  0.92302670     0.18800
O1180       O  0.57085115  0.13991190  0.89029513    -0.63500
H1181       H  0.59451685  0.12683888  0.85269635     0.17200
C1182       C  0.65522835  0.10034258  0.84183805     0.29500
C1183       C  0.66364238  0.09311217  0.81971114    -0.24400
C1184       C  0.65775023  0.10580192  0.79908042    -0.23700
C1185       C  0.64430189  0.12674926  0.80084184     0.40900
C1186       C  0.63595774  0.13412788  0.82302102    -0.26100
O1187       O  0.65937671  0.08630121  0.86136023    -0.58000
H1188       H  0.67399808  0.07694120  0.81850147     0.16600
O1189       O  0.63856466  0.13961150  0.78093970    -0.59400
H1190       H  0.62511527  0.14999618  0.82415130     0.15000
H1191       H  0.56425599  0.12379252  0.89285632     0.46900
H1192       H  0.67674815  0.08679135  0.86400830     0.42300
H1193       H  0.62314337  0.13316538  0.77551373     0.45700
H1194       H  0.67358328  0.11812775  0.89617323     0.37200
C1195       C  0.62415400  0.95832595  0.98314297    -0.27100
C1196       C  0.61842728  0.93874499  0.96875655     0.02500
C1197       C  0.60128204  0.94135119  0.95081111     0.30600
C1198       C  0.59103736  0.96351522  0.94663579    -0.18800
C1199       C  0.59763216  0.98340822  0.96011294    -0.28200
C1200       C  0.61372603  0.98059306  0.97901134     0.44700
C1201       C  0.63082077  0.91583204  0.97211018     0.05900
O1202       O  0.59502674  0.92254107  0.93668445    -0.56800
H1203       H  0.57841110  0.96539186  0.93222396     0.18800
O1204       O  0.62045425  0.99969512  0.99249669    -0.63500
H1205       H  0.63702200  0.95639635  0.99732791     0.17200
C1206       C  0.65572057  0.91448556  0.97106720     0.29500
C1207       C  0.66722479  0.89304876  0.97618669    -0.24400
C1208       C  0.65409949  0.87283595  0.98218927    -0.23700
C1209       C  0.62920964  0.87363364  0.98112043     0.40900
C1210       C  0.61770439  0.89513190  0.97640928    -0.26100
O1211       O  0.66895709  0.93421978  0.96588164    -0.58000
H1212       H  0.68639783  0.89260064  0.97705544     0.16600
O1213       O  0.61603929  0.85394933  0.98664613    -0.59400
H1214       H  0.59853360  0.89584688  0.97702647     0.15000
H1215       H  0.61019715  0.99910281  0.00674648     0.46900
H1216       H  0.67036489  0.93431248  0.94834605     0.42300
H1217       H  0.61409172  0.84531690  0.97144778     0.45700
H1218       H  0.60697558  0.92223401  0.92382151     0.37200
C1219       C  0.62828163  0.03475103  0.81497202    -0.27100
C1220       C  0.60865282  0.04861761  0.82165325     0.02500
C1221       C  0.60151705  0.06759808  0.80701147     0.30600
C1222       C  0.61535253  0.07402772  0.78750415    -0.18800
C1223       C  0.63661174  0.06198317  0.78260754    -0.28200
C1224       C  0.64222761  0.04129383  0.79549010     0.44700
C1225       C  0.59818584  0.04546589  0.84554701     0.05900
O1226       O  0.58211311  0.08109931  0.81274511    -0.56800
H1227       H  0.61066899  0.08981517  0.77750380     0.18800
O1228       O  0.66240688  0.02862748  0.79054937    -0.63500
H1229       H  0.63396879  0.02001387  0.82600011     0.17200
C1230       C  0.58906988  0.02348790  0.85301251     0.29500
C1231       C  0.58226811  0.02033656  0.87670018    -0.24400
C1232       C  0.58478819  0.03880938  0.89335607    -0.23700
C1233       C  0.59288863  0.06112299  0.88557123     0.40900
C1234       C  0.59942097  0.06430543  0.86182971    -0.26100
O1235       O  0.58671399  0.00506654  0.83727236    -0.58000
H1236       H  0.57570853  0.00313039  0.88227483     0.16600
O1237       O  0.59569391  0.07952812  0.90124496    -0.59400
H1238       H  0.60661879  0.08122442  0.85633886     0.15000
H1239       H  0.67531129  0.03681541  0.79924114     0.46900
H1240       H  0.60031126  0.99435127  0.84053490     0.42300
H1241       H  0.61233673  0.07838430  0.90681840     0.45700
H1242       H  0.56904694  0.07478649  0.80281230     0.37200
C1243       C  0.61402433  0.06124469  0.21921647    -0.27100
C1244       C  0.62602337  0.05896654  0.19745878     0.02500
C1245       C  0.65028884  0.06498377  0.19653463     0.30600
C1246       C  0.66226998  0.07174992  0.21708792    -0.18800
C1247       C  0.65011416  0.07520642  0.23840885    -0.28200
C1248       C  0.62587339  0.06957196  0.23954112     0.44700
C1249       C  0.61348860  0.05028518  0.17580158     0.05900
O1250       O  0.66229298  0.06543704  0.17540263    -0.56800
H1251       H  0.68091135  0.07597424  0.21599922     0.18800
O1252       O  0.61338885  0.07326500  0.26003536    -0.63500
H1253       H  0.59539170  0.05686095  0.22039471     0.17200
C1254       C  0.62425840  0.03329066  0.16102826     0.29500
C1255       C  0.61406434  0.02744444  0.13932891    -0.24400
C1256       C  0.59174826  0.03638678  0.13246032    -0.23700
C1257       C  0.57986132  0.05189649  0.14817721     0.40900
C1258       C  0.59096835  0.05907519  0.16943241    -0.26100
O1259       O  0.64486478  0.02208261  0.16762286    -0.58000
H1260       H  0.62398121  0.01570859  0.12782912     0.16600
O1261       O  0.55701833  0.05901405  0.14363432    -0.59400
H1262       H  0.58197858  0.07161637  0.18087417     0.15000
H1263       H  0.61548463  0.05847597  0.26940657     0.46900
H1264       H  0.63995385  0.00942726  0.17883568     0.42300
H1265       H  0.55761014  0.07653335  0.14190153     0.45700
H1266       H  0.65932099  0.08149379  0.16872701     0.37200
C1267       C  0.59874256  0.94372224  0.04147379    -0.27100
C1268       C  0.61981335  0.93639923  0.05273873     0.02500
C1269       C  0.62968394  0.95097733  0.07040654     0.30600
C1270       C  0.61869483  0.97226983  0.07650117    -0.18800
C1271       C  0.59685412  0.97912385  0.06639951    -0.28200
C1272       C  0.58700670  0.96460089  0.04846867     0.44700
C1273       C  0.63161465  0.91372409  0.04610285     0.05900
O1274       O  0.64992700  0.94439129  0.08226223    -0.56800
H1275       H  0.62732106  0.98329705  0.08965437     0.18800
O1276       O  0.56574484  0.97015434  0.03802739    -0.63500
H1277       H  0.59118383  0.93309383  0.02736529     0.17200
C1278       C  0.61893389  0.89217706  0.04470584     0.29500
C1279       C  0.63061454  0.87117615  0.03813234    -0.24400
C1280       C  0.65480796  0.87145011  0.03266715    -0.23700
C1281       C  0.66773271  0.89256217  0.03544418     0.40900
C1282       C  0.65609460  0.91354903  0.04162368    -0.26100
O1283       O  0.59520438  0.89145925  0.04983484    -0.58000
H1284       H  0.62050783  0.85498219  0.03593033     0.16600
O1285       O  0.69145809  0.89318445  0.03030315    -0.59400
H1286       H  0.66617930  0.92988911  0.04230794     0.15000
H1287       H  0.55353748  0.96342634  0.04870942     0.46900
H1288       H  0.58710430  0.88974045  0.03428955     0.42300
H1289       H  0.69956504  0.88997589  0.04561235     0.45700
H1290       H  0.64444569  0.93457519  0.09580140     0.37200
C1291       C  0.02067011  0.43566982  0.20206204    -0.27100
C1292       C  0.03095418  0.45839995  0.20184484     0.02500
C1293       C  0.03438189  0.47027915  0.22366484     0.30600
C1294       C  0.02628723  0.45999357  0.24486249    -0.18800
C1295       C  0.01529800  0.43767486  0.24463380    -0.28200
C1296       C  0.01360146  0.42506954  0.22322239     0.44700
C1297       C  0.03742314  0.46931634  0.17863165     0.05900
O1298       O  0.04510208  0.49210342  0.22445126    -0.56800
H1299       H  0.02761836  0.46986348  0.26129508     0.18800
O1300       O  0.00356066  0.40291201  0.22262704    -0.63500
H1301       H  0.01735404  0.42626363  0.18565671     0.17200
C1302       C  0.04871386  0.45563304  0.16109314     0.29500
C1303       C  0.05241549  0.46508190  0.13852789    -0.24400
C1304       C  0.04667172  0.48885003  0.13308315    -0.23700
C1305       C  0.03602258  0.50287001  0.15089076     0.40900
C1306       C  0.03099179  0.49291455  0.17320836    -0.26100
O1307       O  0.05727455  0.43332499  0.16621023    -0.58000
H1308       H  0.06025333  0.45358304  0.12530120     0.16600
O1309       O  0.03087942  0.52637479  0.14699048    -0.59400
H1310       H  0.02198006  0.50370619  0.18627424     0.15000
H1311       H  0.01654417  0.39179921  0.22691862     0.46900
H1312       H  0.04819103  0.42223398  0.15600404     0.42300
H1313       H  0.04591578  0.53494229  0.15003956     0.45700
H1314       H  0.06234361  0.48869936  0.22426601     0.37200
C1315       C  0.12361586  0.44707685  0.05970288    -0.27100
C1316       C  0.14370325  0.46006057  0.05308008     0.02500
C1317       C  0.14213274  0.48506698  0.05141998     0.30600
C1318       C  0.12097600  0.49670412  0.05743919    -0.18800
C1319       C  0.10137736  0.48366336  0.06524868    -0.28200
C1320       C  0.10257844  0.45864789  0.06560627     0.44700
C1321       C  0.16581530  0.44706219  0.04723763     0.05900
O1322       O  0.16087504  0.49811479  0.04311570    -0.56800
H1323       H  0.12015297  0.51593270  0.05679982     0.18800
O1324       O  0.08338623  0.44537232  0.07238335    -0.63500
H1325       H  0.12436908  0.42785768  0.06071291     0.17200
C1326       C  0.18758345  0.45269632  0.05818630     0.29500
C1327       C  0.20835089  0.44098677  0.05125321    -0.24400
C1328       C  0.20767656  0.42352950  0.03357459    -0.23700
C1329       C  0.18571175  0.41658479  0.02399266     0.40900
C1330       C  0.16502057  0.42843429  0.03070321    -0.26100
O1331       O  0.18883351  0.46990492  0.07533061    -0.58000
H1332       H  0.22517334  0.44640121  0.05877601     0.16600
O1333       O  0.18451874  0.39921699  0.00699854    -0.59400
H1334       H  0.14839749  0.42359686  0.02237113     0.15000
H1335       H  0.07420135  0.44272842  0.05760041     0.46900
H1336       H  0.18591054  0.46147470  0.09050179     0.42300
H1337       H  0.18357561  0.38406271  0.01594231     0.45700
H1338       H  0.16626199  0.50791126  0.05670095     0.37200
C1339       C  0.18773363  0.44488330  0.96032361    -0.27100
C1340       C  0.18125462  0.46601335  0.97190033     0.02500
C1341       C  0.19631498  0.47530671  0.98950226     0.30600
C1342       C  0.21631619  0.46248622  0.99676451    -0.18800
C1343       C  0.22126058  0.44003754  0.98707374    -0.28200
C1344       C  0.20766654  0.43191088  0.96778041     0.44700
C1345       C  0.15745494  0.47649278  0.96773284     0.05900
O1346       O  0.19071934  0.49608864  0.00085250    -0.56800
H1347       H  0.22678675  0.46906000  0.01148726     0.18800
O1348       O  0.21200545  0.41003008  0.95803241    -0.63500
H1349       H  0.17632820  0.43750581  0.94672864     0.17200
C1350       C  0.15044482  0.48468966  0.94523470     0.29500
C1351       C  0.12724940  0.49292994  0.94163326    -0.24400
C1352       C  0.11053380  0.49281869  0.96018807    -0.23700
C1353       C  0.11781858  0.48505543  0.98286096     0.40900
C1354       C  0.14108300  0.47703958  0.98643024    -0.26100
O1355       O  0.16625510  0.48508668  0.92680032    -0.58000
H1356       H  0.12221004  0.49914964  0.92412591     0.16600
O1357       O  0.10217172  0.48437031  0.00142572    -0.59400
H1358       H  0.14617908  0.47038071  0.00368658     0.15000
H1359       H  0.22396746  0.41292655  0.94551277     0.46900
H1360       H  0.16252472  0.47084290  0.91716302     0.42300
H1361       H  0.09567621  0.46801150  0.00141037     0.45700
H1362       H  0.19725977  0.50885463  0.99066715     0.37200
C1363       C  0.04556353  0.48377855  0.86266532    -0.27100
C1364       C  0.02836130  0.46589334  0.86239557     0.02500
C1365       C  0.01717159  0.45926021  0.88370818     0.30600
C1366       C  0.02372550  0.47009523  0.90510124    -0.18800
C1367       C  0.04180656  0.48711502  0.90550561    -0.28200
C1368       C  0.05238614  0.49431715  0.88404963     0.44700
C1369       C  0.02266899  0.45378564  0.83989407     0.05900
O1370       O  0.99986879  0.44220038  0.88374655    -0.56800
H1371       H  0.01542775  0.46448975  0.92149127     0.18800
O1372       O  0.06994029  0.51113581  0.88393592    -0.63500
H1373       H  0.05417329  0.48907916  0.84633554     0.17200
C1374       C  0.01035077  0.46572683  0.82174824     0.29500
C1375       C  0.00347393  0.45336149  0.80135697    -0.24400
C1376       C  0.00858691  0.42906153  0.79892624    -0.23700
C1377       C  0.02251497  0.41758694  0.81620603     0.40900
C1378       C  0.02937831  0.42997982  0.83667511    -0.26100
O1379       O  0.00428130  0.48921591  0.82421714    -0.58000
H1380       H  0.99278731  0.46234912  0.78808232     0.16600
O1381       O  0.02873576  0.39414233  0.81349540    -0.59400
H1382       H  0.03943231  0.42084845  0.85033824     0.15000
H1383       H  0.06155321  0.52662401  0.88457809     0.46900
H1384       H  0.98695791  0.48930919  0.82708178     0.42300
H1385       H  0.02151760  0.38554614  0.82702839     0.45700
H1386       H  0.00802340  0.42725116  0.88832096     0.37200
C1387       C  0.84481244  0.46623769  0.99179958    -0.27100
C1388       C  0.82586392  0.47451335  0.97784252     0.02500
C1389       C  0.82962896  0.49339260  0.96188539     0.30600
C1390       C  0.85250232  0.50258993  0.95888967    -0.18800
C1391       C  0.87163703  0.49333648  0.97193488    -0.28200
C1392       C  0.86755312  0.47560630  0.98901550     0.44700
C1393       C  0.80257415  0.46263845  0.97980498     0.05900
O1394       O  0.81134376  0.50217203  0.94838640    -0.56800
H1395       H  0.85554959  0.51608136  0.94550618     0.18800
O1396       O  0.88600665  0.46611555  0.00178920    -0.63500
H1397       H  0.84206489  0.45198123  0.00443180     0.17200
C1398       C  0.80030051  0.43824743  0.97464410     0.29500
C1399       C  0.77954836  0.42612204  0.98077425    -0.24400
C1400       C  0.76119584  0.43799643  0.99252390    -0.23700
C1401       C  0.76247096  0.46283918  0.99539343     0.40900
C1402       C  0.78314871  0.47501584  0.98911997    -0.26100
O1403       O  0.81864443  0.42599451  0.96440294    -0.58000
H1404       H  0.77870037  0.40704781  0.97833483     0.16600
O1405       O  0.74445003  0.47496065  0.00629657    -0.59400
H1406       H  0.78458638  0.49381871  0.99295443     0.15000
H1407       H  0.88726262  0.47615639  0.01617638     0.46900
H1408       H  0.82638768  0.41721262  0.97759193     0.42300
H1409       H  0.73308106  0.47885448  0.99341580     0.45700
H1410       H  0.81111573  0.49221345  0.93388730     0.37200
C1411       C  0.95917059  0.41701051  0.84870400    -0.27100
C1412       C  0.94825194  0.43941694  0.84978778     0.02500
C1413       C  0.94130107  0.45062767  0.82841432     0.30600
C1414       C  0.94714117  0.44040051  0.80651136    -0.18800
C1415       C  0.95939698  0.41874922  0.80563710    -0.28200
C1416       C  0.96418329  0.40645544  0.82686890     0.44700
C1417       C  0.94498286  0.45126524  0.87313771     0.05900
O1418       O  0.92952094  0.47196116  0.82874868    -0.56800
H1419       H  0.94334401  0.45002344  0.79027139     0.18800
O1420       O  0.97536901  0.38482258  0.82642397    -0.63500
H1421       H  0.96473971  0.40803234  0.86478729     0.17200
C1422       C  0.93469323  0.43922634  0.89245748     0.29500
C1423       C  0.93086056  0.45116961  0.91386524    -0.24400
C1424       C  0.93700945  0.47522292  0.91651013    -0.23700
C1425       C  0.94846644  0.48688972  0.89758701     0.40900
C1426       C  0.95249923  0.47485763  0.87624389    -0.26100
O1427       O  0.92688642  0.41627487  0.89011135    -0.58000
H1428       H  0.92228257  0.44174909  0.92824654     0.16600
O1429       O  0.95482648  0.51033633  0.89928596    -0.59400
H1430       H  0.96115636  0.48418723  0.86187947     0.15000
H1431       H  0.96243950  0.37297276  0.82534583     0.46900
H1432       H  0.93814301  0.40647188  0.89950608     0.42300
H1433       H  0.94103908  0.51939948  0.89310564     0.45700
H1434       H  0.91246869  0.46776685  0.82849062     0.37200
C1435       C  0.92732304  0.49326191  0.17765272    -0.27100
C1436       C  0.94713029  0.47860305  0.18109620     0.02500
C1437       C  0.96243708  0.47406443  0.16193872     0.30600
C1438       C  0.95746904  0.48359213  0.13947117    -0.18800
C1439       C  0.93698029  0.49724463  0.13569897    -0.28200
C1440       C  0.92213707  0.50249911  0.15511632     0.44700
C1441       C  0.95139347  0.46735879  0.20446259     0.05900
O1442       O  0.98211835  0.46006219  0.16497870    -0.56800
H1443       H  0.96898536  0.47932653  0.12472122     0.18800
O1444       O  0.90208133  0.51597571  0.15205309    -0.63500
H1445       H  0.91551388  0.49696378  0.19231901     0.17200
C1446       C  0.96235721  0.48001882  0.22291163     0.29500
C1447       C  0.96879690  0.46825648  0.24388321    -0.24400
C1448       C  0.96481933  0.44374081  0.24656700    -0.23700
C1449       C  0.95230546  0.43147100  0.22879663     0.40900
C1450       C  0.94571419  0.44332210  0.20784061    -0.26100
O1451       O  0.96779580  0.50360148  0.22016298    -0.58000
H1452       H  0.97834110  0.47792834  0.25747841     0.16600
O1453       O  0.94746863  0.40770714  0.23134849    -0.59400
H1454       H  0.93697309  0.43351260  0.19380994     0.15000
H1455       H  0.90770820  0.53264124  0.15125905     0.46900
H1456       H  0.98411519  0.50379070  0.21368985     0.42300
H1457       H  0.95706093  0.39948394  0.21913783     0.45700
H1458       H  0.97693309  0.44374171  0.16090714     0.37200
C1459       C  0.81174381  0.42913007  0.04383019    -0.27100
C1460       C  0.81223403  0.45166555  0.05452564     0.02500
C1461       C  0.79048918  0.46279287  0.06017266     0.30600
C1462       C  0.76894327  0.45210477  0.05375709    -0.18800
C1463       C  0.76871646  0.43008276  0.04219151    -0.28200
C1464       C  0.79026552  0.41815974  0.03820586     0.44700
C1465       C  0.83546860  0.46326848  0.05959886     0.05900
O1466       O  0.79008733  0.48429020  0.07157900    -0.56800
H1467       H  0.75246137  0.46146319  0.05690099     0.18800
O1468       O  0.79051747  0.39638611  0.02731418    -0.63500
H1469       H  0.82809478  0.42022341  0.03914439     0.17200
C1470       C  0.85396687  0.45059522  0.07080039     0.29500
C1471       C  0.87549541  0.46177545  0.07573540    -0.24400
C1472       C  0.87912511  0.48586755  0.07024100    -0.23700
C1473       C  0.86090189  0.49847212  0.05851031     0.40900
C1474       C  0.83941337  0.48710161  0.05307803    -0.26100
O1475       O  0.85106355  0.42737157  0.07761354    -0.58000
H1476       H  0.88931973  0.45162492  0.08449938     0.16600
O1477       O  0.86359013  0.52202897  0.05288818    -0.59400
H1478       H  0.82569891  0.49703177  0.04391185     0.15000
H1479       H  0.78948629  0.38465428  0.04041647     0.46900
H1480       H  0.84244057  0.42808688  0.09290246     0.42300
H1481       H  0.85672443  0.53085286  0.06645455     0.45700
H1482       H  0.79012811  0.48034251  0.08873453     0.37200
C1483       C  0.04643766  0.70779928  0.17561980    -0.27100
C1484       C  0.03474963  0.72986712  0.17679291     0.02500
C1485       C  0.02663384  0.74050799  0.15557745     0.30600
C1486       C  0.03088643  0.72959171  0.13375912    -0.18800
C1487       C  0.04317892  0.70803947  0.13258652    -0.28200
C1488       C  0.05087365  0.69699852  0.15364017     0.44700
C1489       C  0.03097173  0.74188937  0.19996289     0.05900
O1490       O  0.01483901  0.76181709  0.15596863    -0.56800
H1491       H  0.02532126  0.73845317  0.11757735     0.18800
O1492       O  0.06323635  0.67601456  0.15282588    -0.63500
H1493       H  0.05290128  0.69935729  0.19166588     0.17200
C1494       C  0.01950462  0.73026322  0.21887749     0.29500
C1495       C  0.01254312  0.74321936  0.23889337    -0.24400
C1496       C  0.01661310  0.76776569  0.24021530    -0.23700
C1497       C  0.03001755  0.77889693  0.22244209     0.40900
C1498       C  0.03719159  0.76594488  0.20253464    -0.26100
O1499       O  0.01292970  0.70689671  0.21697609    -0.58000
H1500       H  0.00223360  0.73448966  0.25253242     0.16600
O1501       O  0.03411844  0.80289076  0.22322247    -0.59400
H1502       H  0.04655119  0.77504453  0.18844630     0.15000
H1503       H  0.08016804  0.68066914  0.15251781     0.46900
H1504       H  0.02446617  0.69797418  0.22687976     0.42300
H1505       H  0.04939237  0.80459672  0.23177391     0.45700
H1506       H  0.99822521  0.75795616  0.15180830     0.37200
C1507       C  0.13969101  0.71778745  0.04683197    -0.27100
C1508       C  0.14706020  0.73860044  0.05856845     0.02500
C1509       C  0.13153581  0.74893185  0.07519901     0.30600
C1510       C  0.10941363  0.73883711  0.07946222    -0.18800
C1511       C  0.10265532  0.71708842  0.06910787    -0.28200
C1512       C  0.11820266  0.70663406  0.05247278     0.44700
C1513       C  0.17066820  0.74946129  0.05326284     0.05900
O1514       O  0.13792057  0.76858119  0.08806621    -0.56800
H1515       H  0.09774164  0.74801926  0.09159839     0.18800
O1516       O  0.11313803  0.68523056  0.04207428    -0.63500
H1517       H  0.15082719  0.70975089  0.03349193     0.17200
C1518       C  0.19105862  0.73530484  0.04945520     0.29500
C1519       C  0.21225551  0.74583371  0.04209195    -0.24400
C1520       C  0.21398313  0.77053312  0.03971463    -0.23700
C1521       C  0.19466498  0.78493538  0.04594568     0.40900
C1522       C  0.17296300  0.77434961  0.05177045    -0.26100
O1523       O  0.19045493  0.71112440  0.05241707    -0.58000
H1524       H  0.22718052  0.73465026  0.03744375     0.16600
O1525       O  0.19695486  0.80930340  0.04561321    -0.59400
H1526       H  0.15775385  0.78577625  0.05430189     0.15000
H1527       H  0.11880510  0.67304639  0.05349949     0.46900
H1528       H  0.19177628  0.70853708  0.06978011     0.42300
H1529       H  0.18217487  0.81596156  0.03871831     0.45700
H1530       H  0.14785813  0.76241875  0.10125596     0.37200
C1531       C  0.95078654  0.74556235  0.20799310    -0.27100
C1532       C  0.95492000  0.75798718  0.18671321     0.02500
C1533       C  0.96405701  0.78132404  0.18783049     0.30600
C1534       C  0.97031602  0.79108514  0.20977168    -0.18800
C1535       C  0.96768690  0.77790547  0.23064863    -0.28200
C1536       C  0.95708248  0.75540204  0.22986315     0.44700
C1537       C  0.95007662  0.74624587  0.16358491     0.05900
O1538       O  0.96747148  0.79446871  0.16757685    -0.56800
H1539       H  0.97839150  0.80853255  0.21038225     0.18800
O1540       O  0.95428560  0.74227715  0.25018765    -0.63500
H1541       H  0.94306380  0.72796388  0.20763211     0.17200
C1542       C  0.95801800  0.72288893  0.15897250     0.29500
C1543       C  0.95231258  0.71179966  0.13747358    -0.24400
C1544       C  0.93902120  0.72377487  0.12007313    -0.23700
C1545       C  0.93246104  0.74767548  0.12412441     0.40900
C1546       C  0.93747219  0.75844534  0.14586465    -0.26100
O1547       O  0.97092362  0.71053764  0.17557791    -0.58000
H1548       H  0.95761522  0.69349119  0.13479980     0.16600
O1549       O  0.92077966  0.76063062  0.10707370    -0.59400
H1550       H  0.93108310  0.77632909  0.14896055     0.15000
H1551       H  0.93991214  0.74881902  0.25788197     0.46900
H1552       H  0.98757088  0.71150070  0.17016266     0.42300
H1553       H  0.93343772  0.76812246  0.09748045     0.45700
H1554       H  0.98478181  0.79718649  0.16648947     0.37200
C1555       C  0.83065608  0.70860277  0.06935631    -0.27100
C1556       C  0.82877384  0.72745035  0.05307100     0.02500
C1557       C  0.84939129  0.73589446  0.04180514     0.30600
C1558       C  0.87140677  0.72586003  0.04713137    -0.18800
C1559       C  0.87337314  0.70781562  0.06408960    -0.28200
C1560       C  0.85288273  0.69900481  0.07515456     0.44700
C1561       C  0.80554167  0.73885811  0.04831111     0.05900
O1562       O  0.84817042  0.75397552  0.02552261    -0.56800
H1563       H  0.88716631  0.73295416  0.03878291     0.18800
O1564       O  0.85449468  0.68137732  0.09191643    -0.63500
H1565       H  0.81500915  0.70197314  0.07824635     0.17200
C1566       C  0.78614557  0.72569175  0.03969394     0.29500
C1567       C  0.76564091  0.73753147  0.03200659    -0.24400
C1568       C  0.76426024  0.76240150  0.03292151    -0.23700
C1569       C  0.78276925  0.77534741  0.04335381     0.40900
C1570       C  0.80326801  0.76358059  0.05090983    -0.26100
O1571       O  0.78754938  0.70145576  0.03753222    -0.58000
H1572       H  0.75145305  0.72745118  0.02387501     0.16600
O1573       O  0.78188949  0.79969367  0.04407283    -0.59400
H1574       H  0.81783877  0.77391995  0.05794848     0.15000
H1575       H  0.85651165  0.68976737  0.10724774     0.46900
H1576       H  0.79192359  0.69855262  0.02076114     0.42300
H1577       H  0.77736275  0.80363559  0.06059003     0.45700
H1578       H  0.85513923  0.76799575  0.03356212     0.37200
C1579       C  0.95424594  0.70780408  0.80100265    -0.27100
C1580       C  0.93941743  0.71921178  0.81733703     0.02500
C1581       C  0.92971127  0.74157764  0.81141930     0.30600
C1582       C  0.93679675  0.75320936  0.79054147    -0.18800
C1583       C  0.95355556  0.74279585  0.77542149    -0.28200
C1584       C  0.96118059  0.71933931  0.78002640     0.44700
C1585       C  0.93672653  0.70921366  0.84160820     0.05900
O1586       O  0.91537174  0.75330769  0.82715297    -0.56800
H1587       H  0.93098796  0.77130678  0.78739159     0.18800
O1588       O  0.97634247  0.70819533  0.76456050    -0.63500
H1589       H  0.96146320  0.69041724  0.80512531     0.17200
C1590       C  0.91439743  0.70340627  0.85088381     0.29500
C1591       C  0.91220653  0.69707722  0.87483280    -0.24400
C1592       C  0.93205098  0.69675568  0.89006958    -0.23700
C1593       C  0.95459204  0.70128451  0.88040645     0.40900
C1594       C  0.95677734  0.70721750  0.85631715    -0.26100
O1595       O  0.89451567  0.70469350  0.83690380    -0.58000
H1596       H  0.89472984  0.69327935  0.88175870     0.16600
O1597       O  0.97425834  0.70208885  0.89471801    -0.59400
H1598       H  0.97407216  0.71155839  0.84937090     0.15000
H1599       H  0.99028177  0.70311001  0.77405294     0.46900
H1600       H  0.89164536  0.68818398  0.83150861     0.42300
H1601       H  0.98252524  0.68675977  0.89208858     0.45700
H1602       H  0.89911299  0.75163215  0.82067123     0.37200
C1603       C  0.85862154  0.75480208  0.95779820    -0.27100
C1604       C  0.84085839  0.74233144  0.96992328     0.02500
C1605       C  0.84588056  0.71916052  0.97828651     0.30600
C1606       C  0.86784740  0.70852171  0.97348381    -0.18800
C1607       C  0.88511648  0.72061229  0.96033118    -0.28200
C1608       C  0.88063761  0.74430657  0.95331909     0.44700
C1609       C  0.81708443  0.75336935  0.97338595     0.05900
O1610       O  0.82954051  0.70691090  0.99147557    -0.56800
H1611       H  0.87092759  0.69035989  0.97912865     0.18800
O1612       O  0.89742659  0.75712619  0.94130996    -0.63500
H1613       H  0.85524117  0.77254589  0.95111456     0.17200
C1614       C  0.81456007  0.77678748  0.98204367     0.29500
C1615       C  0.79193296  0.78592250  0.98670497    -0.24400
C1616       C  0.77176386  0.77179782  0.98362055    -0.23700
C1617       C  0.77404562  0.74909223  0.97368115     0.40900
C1618       C  0.79654689  0.74013230  0.96836097    -0.26100
O1619       O  0.83408665  0.79049735  0.98686301    -0.58000
H1620       H  0.79025217  0.80346330  0.99443545     0.16600
O1621       O  0.75454608  0.73488628  0.97081349    -0.59400
H1622       H  0.79795214  0.72247215  0.96090432     0.15000
H1623       H  0.90725413  0.76463771  0.95381728     0.46900
H1624       H  0.83358189  0.79380683  0.00413445     0.42300
H1625       H  0.74991368  0.73677256  0.95393240     0.45700
H1626       H  0.82396406  0.69380801  0.98113147     0.37200
C1627       C  0.12999001  0.74974818  0.95755482    -0.27100
C1628       C  0.14779787  0.73636289  0.96880766     0.02500
C1629       C  0.14246039  0.71286957  0.97600716     0.30600
C1630       C  0.12003620  0.70310231  0.97107804    -0.18800
C1631       C  0.10246356  0.71657245  0.95950896    -0.28200
C1632       C  0.10744002  0.74048997  0.95379771     0.44700
C1633       C  0.17078106  0.74824210  0.97456158     0.05900
O1634       O  0.15852392  0.69974190  0.98884495    -0.56800
H1635       H  0.11655296  0.68484950  0.97607011     0.18800
O1636       O  0.09026903  0.75524154  0.94473278    -0.63500
H1637       H  0.13336547  0.76782916  0.95190205     0.17200
C1638       C  0.19301261  0.73687287  0.97199284     0.29500
C1639       C  0.21372070  0.74815973  0.97997563    -0.24400
C1640       C  0.21278614  0.77137847  0.98887135    -0.23700
C1641       C  0.19123125  0.78378072  0.98841888     0.40900
C1642       C  0.17039711  0.77198527  0.98240763    -0.26100
O1643       O  0.19478950  0.71490285  0.96168643    -0.58000
H1644       H  0.23041617  0.73863712  0.97967468     0.16600
O1645       O  0.19017335  0.80713232  0.99518039    -0.59400
H1646       H  0.15381400  0.78147786  0.98434208     0.15000
H1647       H  0.08130333  0.76098306  0.95871160     0.46900
H1648       H  0.19767622  0.71808931  0.94462701     0.42300
H1649       H  0.19403780  0.81633912  0.98069094     0.45700
H1650       H  0.16226605  0.68568158  0.97893028     0.37200
C1651       C  0.02661387  0.73110280  0.81055148    -0.27100
C1652       C  0.01547175  0.73847782  0.83158776     0.02500
C1653       C  0.99766314  0.75607193  0.83036160     0.30600
C1654       C  0.99100072  0.76554138  0.80842816    -0.18800
C1655       C  0.00113090  0.75710882  0.78738296    -0.28200
C1656       C  0.01964992  0.74044847  0.78854347     0.44700
C1657       C  0.02322320  0.72867722  0.85482357     0.05900
O1658       O  0.98638805  0.76382522  0.85047727    -0.56800
H1659       H  0.97702910  0.77875912  0.80773087     0.18800
O1660       O  0.03007965  0.73222000  0.76820180    -0.63500
H1661       H  0.04078172  0.71811285  0.81117405     0.17200
C1662       C  0.02522559  0.70398245  0.85891531     0.29500
C1663       C  0.03266396  0.69555657  0.88119095    -0.24400
C1664       C  0.03848646  0.71149447  0.89938866    -0.23700
C1665       C  0.03636783  0.73609644  0.89528301     0.40900
C1666       C  0.02882529  0.74445898  0.87320802    -0.26100
O1667       O  0.01921398  0.68800731  0.84155577    -0.58000
H1668       H  0.03431827  0.67658901  0.88411579     0.16600
O1669       O  0.04123239  0.75210578  0.91297797    -0.59400
H1670       H  0.02772670  0.76347394  0.87035784     0.15000
H1671       H  0.04441097  0.74215699  0.76610815     0.46900
H1672       H  0.03441801  0.68105863  0.83611544     0.42300
H1673       H  0.05621927  0.75994031  0.90823438     0.45700
H1674       H  0.97013280  0.75723317  0.84958896     0.37200
loop_ 
_geom_bond_atom_site_label_1 
_geom_bond_atom_site_label_2 
_geom_bond_distance 
_geom_bond_site_symmetry_2 
_ccdc_geom_bond_type 
C1            C2   1.402       .  A
C1            C6   1.410       .  A
C1         C1631   1.492       .  S
C2            C3   1.397       .  A
C2            H7   1.083       .  S
C3            C4   1.401       .  A
C3         C1664   1.478       .  S
C4            C5   1.404       .  A
C4            H8   1.084       .  S
C5            C6   1.410       .  A
C5           C75   1.470       .  S
C6            H9   1.083       .  S
C10          C11   1.409       .  A
C10          C15   1.401       .  A
C10        C1607   1.488       .  S
C11          C12   1.409       .  A
C11          H16   1.084       .  S
C12          C13   1.411       .  A
C12          C81   1.480       .  S
C13          C14   1.408       .  A
C13          H17   1.083       .  S
C14          C15   1.400       .  A
C14        C1592   1.491       .  S
C15          H18   1.084       .  S
C19          C20   1.411       .  A
C19          C24   1.403       .  A
C19        C1544   1.488       .  S
C20          C21   1.407       .  A
C20          H25   1.084       .  S
C21          C22   1.403       .  A
C21          C98   1.468       .  S
C22          C23   1.398       .  A
C22          H26   1.084       .  S
C23          C24   1.395       .  A
C23        C1559   1.469       .  S
C24          H27   1.084       .  S
C28          C29   1.397       .  A
C28          C33   1.394       .  A
C28        C1487   1.471       .  S
C29          C30   1.403       .  A
C29          H34   1.084       .  S
C30          C31   1.410       .  A
C30         C104   1.469       .  S
C31          C32   1.414       .  A
C31          H35   1.081       .  S
C32          C33   1.407       .  A
C32        C1511   1.501       .  S
C33          H36   1.083       .  S
C37          C38   1.399       .  A
C37          C42   1.404       .  A
C37        C1439   1.482       .  S
C38          C39   1.404       .  A
C38          H43   1.084       .  S
C39          C40   1.410       .  A
C39        C1472   1.491       .  S
C40          C41   1.409       .  A
C40          H44   1.083       .  S
C41          C42   1.407       .  A
C41         C101   1.475       .  S
C42          H45   1.084       .  S
C46          C47   1.397       .  A
C46          C51   1.401       .  A
C46        C1391   1.473       .  S
C47          C48   1.403       .  A
C47          H52   1.084       .  S
C48          C49   1.406       .  A
C48        C1424   1.487       .  S
C49          C50   1.405       .  A
C49          H53   1.084       .  S
C50          C51   1.406       .  A
C50          C78   1.466       .  S
C51          H54   1.084       .  S
C55          C56   1.411       .  A
C55          C60   1.403       .  A
C55        C1352   1.492       .  S
C56          C57   1.410       .  A
C56          H61   1.083       .  S
C57          C58   1.404       .  A
C57          C84   1.473       .  S
C58          C59   1.401       .  A
C58          H62   1.084       .  S
C59          C60   1.399       .  A
C59        C1367   1.475       .  S
C60          H63   1.084       .  S
C64          C65   1.412       .  A
C64          C69   1.403       .  A
C64        C1304   1.497       .  S
C65          C66   1.411       .  A
C65          H70   1.082       .  S
C66          C67   1.405       .  A
C66          C95   1.470       .  S
C67          C68   1.400       .  A
C67          H71   1.084       .  S
C68          C69   1.395       .  A
C68        C1319   1.477       .  S
C69          H72   1.084       .  S
O73         Zr85   2.446       .  S
O73          C75   1.288       .  A
O74        Zr111   2.433   1_456  S
O74          C75   1.288       .  A
O76         Zr88   2.442       .  S
O76          C78   1.288       .  A
O77        Zr112   2.425   1_556  S
O77          C78   1.286       .  A
O79         Zr88   2.441       .  S
O79          C81   1.287       .  A
O80        Zr111   2.456   1_556  S
O80          C81   1.292       .  A
O82         Zr85   2.438       .  S
O82          C84   1.287       .  A
O83        Zr112   2.447   1_456  S
O83          C84   1.291       .  A
Zr85         O86   2.435       .  S
Zr85         O87   2.436       .  S
Zr85         O91   2.373   1_455  S
Zr85         O92   2.378   1_455  S
Zr85        O115   2.375   1_556  S
Zr85        O117   2.370   1_556  S
O86         H129   0.990       .  S
O87         H128   0.990       .  S
O87         H132   0.990       .  S
Zr88         O89   2.436       .  S
Zr88         O90   2.434       .  S
Zr88         O92   2.369       .  S
Zr88         O91   2.373       .  S
Zr88        O116   2.374   1_556  S
Zr88        O118   2.371   1_556  S
O89         H130   0.990       .  S
O89         H133   0.990       .  S
O90         H123   0.990       .  S
O91        Zr111   2.390   1_556  S
O92        Zr112   2.395   1_556  S
O92         H119   0.967       .  S
O93        Zr105   2.446       .  S
O93          C95   1.288       .  A
O94        Zr112   2.433   1_455  S
O94          C95   1.287       .  A
O96        Zr108   2.434       .  S
O96          C98   1.286       .  A
O97        Zr111   2.438       .  S
O97          C98   1.288       .  A
O99        Zr108   2.436       .  S
O99         C101   1.286       .  A
O100       Zr112   2.453       .  S
O100        C101   1.291       .  A
O102       Zr105   2.428       .  S
O102        C104   1.285       .  A
O103       Zr111   2.448   1_455  S
O103        C104   1.290       .  A
Zr105       O106   2.435       .  S
Zr105       O107   2.434       .  S
Zr105       O113   2.368   1_455  S
Zr105       O114   2.376   1_455  S
Zr105       O117   2.371       .  S
Zr105       O115   2.366       .  S
O106        H126   0.990       .  S
O106        H131   0.990       .  S
O107        H127   0.990       .  S
Zr108       O109   2.434       .  S
Zr108       O110   2.435       .  S
Zr108       O114   2.371       .  S
Zr108       O113   2.373       .  S
Zr108       O118   2.367       .  S
Zr108       O116   2.370       .  S
O109        H125   0.990       .  S
O110        H124   0.990       .  S
O110        H134   0.990       .  S
Zr111       O114   2.387       .  S
Zr111       O116   2.389       .  S
Zr111       O117   2.391   1_655  S
Zr112       O113   2.387       .  S
Zr112       O115   2.386   1_655  S
Zr112       O118   2.384       .  S
O113        H121   0.966       .  S
O116        H120   0.965       .  S
O117        H122   0.966       .  S
C135        C136   1.404       .  A
C135        C140   1.406       .  A
C135       C1256   1.499       .  S
C136        C137   1.405       .  A
C136        H141   1.082   1_545  S
C137        C138   1.408       .  A
C137       C1271   1.498   1_545  S
C138        C139   1.406       .  A
C138        H142   1.082       .  S
C139        C140   1.406       .  A
C139        C209   1.468       .  S
C140        H143   1.082       .  S
C144        C145   1.406       .  A
C144        C149   1.398       .  A
C144       C1232   1.485       .  S
C145        C146   1.409       .  A
C145        H150   1.084       .  S
C146        C147   1.405       .  A
C146        C215   1.469       .  S
C147        C148   1.403       .  A
C147        H151   1.084       .  S
C148        C149   1.400       .  A
C148       C1199   1.476   1_545  S
C149        H152   1.085       .  S
C153        C154   1.410       .  A
C153        C158   1.402       .  A
C153       C1160   1.489       .  S
C154        C155   1.409       .  A
C154        H159   1.083       .  S
C155        C156   1.402       .  A
C155        C232   1.466       .  S
C156        C157   1.399       .  A
C156        H160   1.084       .  S
C157        C158   1.395       .  A
C157       C1175   1.472       .  S
C158        H161   1.084       .  S
C162        C163   1.407       .  A
C162        C167   1.399       .  A
C162       C1112   1.488       .  S
C163        C164   1.410       .  A
C163        H168   1.084       .  S
C164        C165   1.405       .  A
C164        C238   1.475       .  S
C165        C166   1.407       .  A
C165        H169   1.082       .  S
C166        C167   1.403       .  A
C166       C1127   1.492       .  S
C167        H170   1.083       .  S
C171        C172   1.406       .  A
C171        C176   1.399       .  A
C171       C1064   1.488       .  S
C172        C173   1.409       .  A
C172        H177   1.084       .  S
C173        C174   1.414       .  A
C173        C235   1.480       .  S
C174        C175   1.412       .  A
C174        H178   1.084       .  S
C175        C176   1.403       .  A
C175       C1079   1.496       .  S
C176        H179   1.084       .  S
C180        C181   1.400       .  A
C180        C185   1.393       .  A
C180       C1007   1.466       .  S
C181        C182   1.406       .  A
C181        H186   1.084       .  S
C182        C183   1.405       .  A
C182        C212   1.462       .  S
C183        C184   1.403       .  A
C183        H187   1.084       .  S
C184        C185   1.396       .  A
C184       C1031   1.473   1_545  S
C185        H188   1.085       .  S
C189        C190   1.409       .  A
C189        C194   1.401       .  A
C189        C959   1.485       .  S
C190        C191   1.412       .  A
C190        H195   1.084       .  S
C191        C192   1.407       .  A
C191        C218   1.476       .  S
C192        C193   1.403       .  A
C192        H196   1.084       .  S
C193        C194   1.396       .  A
C193        C983   1.481   1_545  S
C194        H197   1.085       .  S
C198        C199   1.395       .  A
C198        C203   1.403       .  A
C198        C944   1.475       .  S
C199        C200   1.395       .  A
C199        H204   1.085       .  S
C200        C201   1.406       .  A
C200        C920   1.473       .  S
C201        C202   1.411       .  A
C201        H205   1.084       .  S
C202        C203   1.405       .  A
C202        C229   1.470       .  S
C203        H206   1.084       .  S
O207       Zr219   2.438       .  S
O207        C209   1.286       .  A
O208       Zr245   2.436       .  S
O208        C209   1.288       .  A
O210       Zr222   2.419       .  S
O210        C212   1.283       .  A
O211       Zr246   2.442   1_556  S
O211        C212   1.289       .  A
O213       Zr222   2.427       .  S
O213        C215   1.285       .  A
O214       Zr245   2.447   1_556  S
O214        C215   1.290       .  A
O216       Zr219   2.442       .  S
O216        C218   1.288       .  A
O217       Zr246   2.447       .  S
O217        C218   1.291       .  A
Zr219       O220   2.435       .  S
Zr219       O221   2.436       .  S
Zr219       O225   2.372       .  S
Zr219       O226   2.372       .  S
Zr219       O249   2.367       .  S
Zr219       O251   2.377       .  S
O220        H263   0.990       .  S
O221        H262   0.990       .  S
O221        H266   0.990       .  S
Zr222       O223   2.437       .  S
Zr222       O224   2.434       .  S
Zr222       O226   2.373   1_556  S
Zr222       O225   2.369   1_556  S
Zr222       O250   2.369       .  S
Zr222       O252   2.370       .  S
O223        H264   0.990       .  S
O223        H267   0.990       .  S
O224        H257   0.990       .  S
O225       Zr245   2.383       .  S
O226       Zr246   2.390       .  S
O226        H253   0.966       .  S
O227       Zr239   2.448       .  S
O227        C229   1.288       .  A
O228       Zr246   2.431       .  S
O228        C229   1.288       .  A
O230       Zr242   2.441       .  S
O230        C232   1.287       .  A
O231       Zr245   2.429   1_556  S
O231        C232   1.287       .  A
O233       Zr242   2.442       .  S
O233        C235   1.287       .  A
O234       Zr246   2.456   1_556  S
O234        C235   1.292       .  A
O236       Zr239   2.446       .  S
O236        C238   1.289       .  A
O237       Zr245   2.437       .  S
O237        C238   1.289       .  A
Zr239       O240   2.436       .  S
Zr239       O241   2.434       .  S
Zr239       O247   2.377       .  S
Zr239       O248   2.365       .  S
Zr239       O251   2.376       .  S
Zr239       O249   2.367       .  S
O240        H260   0.990       .  S
O240        H265   0.990       .  S
O241        H261   0.990       .  S
Zr242       O243   2.434       .  S
Zr242       O244   2.435       .  S
Zr242       O248   2.364   1_556  S
Zr242       O247   2.374   1_556  S
Zr242       O252   2.370       .  S
Zr242       O250   2.373       .  S
O243        H259   0.990       .  S
O244        H258   0.990       .  S
O244        H268   0.990       .  S
Zr245       O248   2.383       .  S
Zr245       O250   2.387   1_554  S
Zr245       O251   2.393       .  S
Zr246       O247   2.392       .  S
Zr246       O249   2.385       .  S
Zr246       O252   2.381   1_554  S
O247        H255   0.968       .  S
O250        H254   0.965       .  S
O251        H256   0.967       .  S
C269        C270   1.410       .  A
C269        C274   1.402       .  A
C269        C872   1.497       .  S
C270        C271   1.412       .  A
C270        H275   1.083       .  S
C271        C272   1.411       .  A
C271        C349   1.480       .  S
C272        C273   1.410       .  A
C272        H276   1.083       .  S
C273        C274   1.401       .  A
C273        C896   1.497   1_545  S
C274        H277   1.083       .  S
C278        C279   1.399       .  A
C278        C283   1.406       .  A
C278        C839   1.483       .  S
C279        C280   1.397   1_545  A
C279        H284   1.084   1_545  S
C280        C281   1.407   1_565  A
C280        C815   1.478       .  S
C281        C282   1.409       .  A
C281        H285   1.084       .  S
C282        C283   1.404       .  A
C282        C343   1.471       .  S
C283        H286   1.084       .  S
C287        C288   1.407       .  A
C287        C292   1.401       .  A
C287        C776   1.487       .  S
C288        C289   1.407       .  A
C288        H293   1.083       .  S
C289        C290   1.402       .  A
C289        C372   1.467       .  S
C290        C291   1.401       .  A
C290        H294   1.084       .  S
C291        C292   1.396       .  A
C291        C791   1.470       .  S
C292        H295   1.084       .  S
C296        C297   1.406       .  A
C296        C301   1.397       .  A
C296        C728   1.475       .  S
C297        C298   1.408       .  A
C297        H302   1.084       .  S
C298        C299   1.409       .  A
C298        C366   1.473       .  S
C299        C300   1.404       .  A
C299        H303   1.084       .  S
C300        C301   1.397       .  A
C300        C743   1.474       .  S
C301        H304   1.085       .  S
C305        C306   1.415       .  A
C305        C310   1.404       .  A
C305        C671   1.502       .  S
C306        C307   1.414       .  A
C306        H311   1.082       .  S
C307        C308   1.407       .  A
C307        C363   1.477       .  S
C308        C309   1.402       .  A
C308        H312   1.084       .  S
C309        C310   1.396       .  A
C309        C695   1.483       .  S
C310        H313   1.083       .  S
C314        C315   1.407       .  A
C314        C319   1.402       .  A
C314        C623   1.488       .  S
C315        C316   1.409       .  A
C315        H320   1.084       .  S
C316        C317   1.404       .  A
C316        C352   1.474       .  S
C317        C318   1.406       .  A
C317        H321   1.084       .  S
C318        C319   1.404       .  A
C318        C647   1.488   1_545  S
C319        H322   1.084       .  S
C323        C324   1.405       .  A
C323        C328   1.399       .  A
C323        C584   1.477       .  S
C324        C325   1.405       .  A
C324        H329   1.084       .  S
C325        C326   1.401       .  A
C325        C346   1.458       .  S
C326        C327   1.396       .  A
C326        H330   1.084       .  S
C327        C328   1.394       .  A
C327        C608   1.463   1_545  S
C328        H331   1.085       .  S
C332        C333   1.404       .  A
C332        C337   1.394       .  A
C332        C527   1.475       .  S
C333        C334   1.411       .  A
C333        H338   1.084       .  S
C334        C335   1.408       .  A
C334        C369   1.472       .  S
C335        C336   1.406       .  A
C335        H339   1.084       .  S
C336        C337   1.398       .  A
C336        C560   1.481       .  S
C337        H340   1.085       .  S
O341       Zr353   2.425       .  S
O341        C343   1.284       .  A
O342       Zr379   2.456       .  S
O342        C343   1.292       .  A
O344       Zr356   2.429       .  S
O344        C346   1.285       .  A
O345       Zr380   2.425   1_455  S
O345        C346   1.286       .  A
O347       Zr356   2.451       .  S
O347        C349   1.289       .  A
O348       Zr379   2.449   1_455  S
O348        C349   1.290       .  A
O350       Zr353   2.439       .  S
O350        C352   1.287       .  A
O351       Zr380   2.444       .  S
O351        C352   1.290       .  A
Zr353       O354   2.436       .  S
Zr353       O355   2.437       .  S
Zr353       O359   2.378       .  S
Zr353       O360   2.372       .  S
Zr353       O383   2.365       .  S
Zr353       O385   2.376       .  S
O354        H397   0.990       .  S
O355        H396   0.990       .  S
O355        H400   0.990       .  S
Zr356       O357   2.435       .  S
Zr356       O358   2.434       .  S
Zr356       O360   2.378   1_455  S
Zr356       O359   2.365   1_455  S
Zr356       O384   2.366       .  S
Zr356       O386   2.382       .  S
O357        H398   0.990       .  S
O357        H401   0.990   1_455  S
O358        H391   0.990       .  S
O359       Zr379   2.385       .  S
O360       Zr380   2.393       .  S
O360        H387   0.966       .  S
O361       Zr373   2.456       .  S
O361        C363   1.290       .  A
O362       Zr380   2.439       .  S
O362        C363   1.289       .  A
O364       Zr376   2.435       .  S
O364        C366   1.286       .  A
O365       Zr379   2.449   1_455  S
O365        C366   1.291       .  A
O367       Zr376   2.447       .  S
O367        C369   1.288       .  A
O368       Zr380   2.437   1_455  S
O368        C369   1.288       .  A
O370       Zr373   2.428       .  S
O370        C372   1.285       .  A
O371       Zr379   2.442       .  S
O371        C372   1.290       .  A
Zr373       O374   2.435       .  S
Zr373       O375   2.435       .  S
Zr373       O381   2.365       .  S
Zr373       O382   2.376       .  S
Zr373       O385   2.378       .  S
Zr373       O383   2.363       .  S
O374        H394   0.990       .  S
O374        H399   0.990       .  S
O375        H395   0.990       .  S
Zr376       O377   2.433       .  S
Zr376       O378   2.435       .  S
Zr376       O382   2.370   1_455  S
Zr376       O381   2.368   1_455  S
Zr376       O386   2.372       .  S
Zr376       O384   2.372       .  S
O377        H393   0.990   1_455  S
O378        H392   0.990       .  S
O378        H402   0.990       .  S
Zr379       O382   2.391       .  S
Zr379       O384   2.390   1_655  S
Zr379       O385   2.397       .  S
Zr380       O381   2.386       .  S
Zr380       O383   2.380       .  S
Zr380       O386   2.391   1_655  S
O381        H389   0.965       .  S
O384        H388   0.966       .  S
O385        H390   0.967       .  S
C403        S404   1.802       .  S
C403        S407   1.805   1_655  S
C403        C411   1.354       .  D
S404        C405   1.791       .  S
C405        C406   1.346       .  D
C405        C680   1.485       .  S
C406        S407   1.792   1_655  S
C406        C536   1.486   1_655  S
C408        S412   1.791       .  S
C408        C409   1.347   1_455  D
C408       C1295   1.482       .  S
C409        S410   1.794       .  S
C409       C1448   1.490       .  S
S410        C411   1.804       .  S
C411        S412   1.800   1_655  S
C413        S414   1.801       .  S
C413        S417   1.803       .  S
C413        C421   1.351       .  D
S414        C415   1.792       .  S
C415        C416   1.346       .  D
C415        C551   1.486       .  S
C416        S417   1.787       .  S
C416        C575   1.482       .  S
C418        S422   1.786       .  S
C418        C419   1.347       .  D
C418        C968   1.482       .  S
C419        S420   1.792       .  S
C419        C911   1.487       .  S
S420        C421   1.805       .  S
C421        S422   1.800       .  S
C423        S424   1.802   1_554  S
C423        S427   1.801       .  S
C423        C431   1.353       .  D
S424        C425   1.796   1_556  S
C425        C426   1.348       .  D
C425       C1343   1.488   1_554  S
C426        S427   1.786       .  S
C426       C1328   1.483       .  S
C428        S432   1.787       .  S
C428        C429   1.351       .  D
C428        C935   1.482       .  S
C429        S430   1.801   1_554  S
C429       C1055   1.497   1_554  S
S430        C431   1.803   1_556  S
C431        S432   1.796       .  S
C433        S434   1.804       .  S
C433        S437   1.799       .  S
C433        C441   1.352       .  D
S434        C435   1.796       .  S
C435        C436   1.347       .  D
C435       C1247   1.488       .  S
C436        S437   1.782       .  S
C436       C1136   1.478       .  S
C438        S442   1.784       .  S
C438        C439   1.350       .  D
C438        C704   1.487       .  S
C439        S440   1.799       .  S
C439        C632   1.489       .  S
S440        C441   1.802       .  S
C441        S442   1.799       .  S
C443        S444   1.803       .  S
C443        S447   1.798   1_655  S
C443        C451   1.347       .  D
S444        C445   1.783       .  S
C445        C446   1.344   1_655  D
C445        C656   1.483       .  S
C446        S447   1.785       .  S
C446        C599   1.473       .  S
C448        S452   1.789       .  S
C448        C449   1.345   1_455  D
C448       C1496   1.483       .  S
C449        S450   1.781       .  S
C449       C1535   1.474       .  S
S450        C451   1.795       .  S
C451        S452   1.803   1_655  S
C453        S454   1.802       .  S
C453        S457   1.804       .  S
C453        C461   1.353       .  D
S454        C455   1.793       .  S
C455        C456   1.347       .  D
C455        C752   1.486       .  S
C456        S457   1.791       .  S
C456        C863   1.485       .  S
C458        S462   1.791       .  S
C458        C459   1.347       .  D
C458       C1016   1.482       .  S
C459        S460   1.793       .  S
C459       C1088   1.488       .  S
S460        C461   1.803       .  S
C461        S462   1.801       .  S
C463        S464   1.803       .  S
C463        S467   1.802   1_655  S
C463        C471   1.352       .  D
S464        C465   1.789       .  S
C465        C466   1.346       .  D
C465       C1415   1.484       .  S
C466        S467   1.790   1_655  S
C466       C1376   1.483   1_655  S
C468        S472   1.793   1_655  S
C468        C469   1.348       .  D
C468        C719   1.489   1_655  S
C469        S470   1.789       .  S
C469        C767   1.481       .  S
S470        C471   1.800       .  S
C471        S472   1.802   1_655  S
C473        S474   1.797   1_554  S
C473        S477   1.801       .  S
C473        C481   1.350       .  D
S474        C475   1.789   1_556  S
C475        C476   1.351       .  D
C475       C1040   1.482   1_554  S
C476        S477   1.794       .  S
C476        C992   1.494       .  S
C478        S482   1.789       .  S
C478        C479   1.346       .  D
C478       C1520   1.480       .  S
C479        S480   1.787   1_554  S
C479       C1640   1.482   1_554  S
S480        C481   1.802   1_556  S
C481        S482   1.800       .  S
C483        S484   1.806       .  S
C483        S487   1.801   1_554  S
C483        C491   1.355       .  D
S484        C485   1.796       .  S
C485        C486   1.348       .  D
C485       C1103   1.493       .  S
C486        S487   1.790   1_554  S
C486       C1151   1.485   1_554  S
C488        S492   1.791   1_554  S
C488        C489   1.346       .  D
C488       C1400   1.485   1_554  S
C489        S490   1.794       .  S
C489       C1463   1.487       .  S
S490        C491   1.802       .  S
C491        S492   1.804   1_554  S
C493        S494   1.801       .  S
C493        S497   1.804   1_655  S
C493        C501   1.355       .  D
S494        C495   1.797       .  S
C495        C496   1.347       .  D
C495        C824   1.484       .  S
C496        S497   1.788   1_655  S
C496        C887   1.486   1_655  S
C498        S502   1.787   1_655  S
C498        C499   1.348       .  D
C498       C1655   1.482   1_655  S
C499        S500   1.800       .  S
C499       C1583   1.494       .  S
S500        C501   1.808       .  S
C501        S502   1.798   1_655  S
C503        S504   1.801       .  S
C503        S507   1.797       .  S
C503        C511   1.348       .  D
S504        C505   1.795       .  S
C505        C506   1.348       .  D
C505       C1223   1.486       .  S
C506        S507   1.780       .  S
C506       C1184   1.481       .  S
C508        S512   1.779       .  S
C508        C509   1.345       .  D
C508        C800   1.479       .  S
C509        S510   1.793       .  S
C509        C848   1.480       .  S
S510        C511   1.801       .  S
C511        S512   1.796       .  S
C513        S514   1.800   1_554  S
C513        S517   1.801       .  S
C513        C521   1.348       .  D
S514        C515   1.785       .  S
C515        C516   1.345   1_556  D
C515       C1208   1.478       .  S
C516        S517   1.785       .  S
C516       C1280   1.480       .  S
C518        S522   1.785       .  S
C518        C519   1.344   1_554  D
C518       C1568   1.479       .  S
C519        S520   1.786       .  S
C519       C1616   1.479       .  S
S520        C521   1.800   1_556  S
C521        S522   1.800       .  S
C523        C524   1.407       .  A
C523        C528   1.403       .  A
C523        H533   1.083       .  S
C524        C525   1.412       .  A
C524        C529   1.491       .  S
C525        C526   1.401       .  A
C525        O530   1.374       .  S
C526        C527   1.400       .  A
C526        H531   1.084       .  S
C527        C528   1.406       .  A
C528        O532   1.371       .  S
C529        C534   1.410       .  A
C529        C538   1.408       .  A
O530        H546   0.991   1_455  S
O532        H543   0.992       .  S
C534        C535   1.401       .  A
C534        O539   1.372       .  S
C535        C536   1.404       .  A
C535        H540   1.084   1_455  S
C536        C537   1.405       .  A
C537        C538   1.401       .  A
C537        O541   1.371       .  S
C538        H542   1.083       .  S
O539        H544   0.992       .  S
O541        H545   0.991       .  S
C547        C548   1.407       .  A
C547        C552   1.402       .  A
C547        H557   1.083       .  S
C548        C549   1.410       .  A
C548        C553   1.487       .  S
C549        C550   1.398       .  A
C549        O554   1.373       .  S
C550        C551   1.404       .  A
C550        H555   1.084       .  S
C551        C552   1.404       .  A
C552        O556   1.371       .  S
C553        C558   1.413       .  A
C553        C562   1.403       .  A
O554        H570   0.992       .  S
O556        H567   0.991       .  S
C558        C559   1.404       .  A
C558        O563   1.372       .  S
C559        C560   1.402       .  A
C559        H564   1.083       .  S
C560        C561   1.410       .  A
C561        C562   1.395       .  A
C561        O565   1.372       .  S
C562        H566   1.083       .  S
O563        H568   0.992       .  S
O565        H569   0.992       .  S
C571        C572   1.398       .  A
C571        C576   1.396       .  A
C571        H581   1.084       .  S
C572        C573   1.407       .  A
C572        C577   1.470       .  S
C573        C574   1.400       .  A
C573        O578   1.371       .  S
C574        C575   1.402       .  A
C574        H579   1.083       .  S
C575        C576   1.410       .  A
C576        O580   1.371       .  S
C577        C582   1.401       .  A
C577        C586   1.403       .  A
O578        H594   0.992       .  S
O580        H591   0.991       .  S
C582        C583   1.395       .  A
C582        O587   1.371       .  S
C583        C584   1.406       .  A
C583        H588   1.084       .  S
C584        C585   1.409       .  A
C585        C586   1.400       .  A
C585        O589   1.372       .  S
C586        H590   1.082       .  S
O587        H592   0.992       .  S
O589        H593   0.992       .  S
C595        C596   1.403       .  A
C595        C600   1.394       .  A
C595        H605   1.083       .  S
C596        C597   1.411       .  A
C596        C601   1.478       .  S
C597        C598   1.397       .  A
C597        O602   1.371       .  S
C598        C599   1.399       .  A
C598        H603   1.084       .  S
C599        C600   1.406       .  A
C600        O604   1.372   1_455  S
C601        C606   1.411       .  A
C601        C610   1.404       .  A
O602        H618   0.991       .  S
O604        H615   0.992   1_655  S
C606        C607   1.397       .  A
C606        O611   1.372       .  S
C607        C608   1.398       .  A
C607        H612   1.084   1_565  S
C608        C609   1.403       .  A
C609        C610   1.397       .  A
C609        O613   1.371       .  S
C610        H614   1.083       .  S
O611        H616   0.991   1_455  S
O613        H617   0.992       .  S
C619        C620   1.406       .  A
C619        C624   1.402       .  A
C619        H629   1.081       .  S
C620        C621   1.405       .  A
C620        C625   1.485       .  S
C621        C622   1.400       .  A
C621        O626   1.371       .  S
C622        C623   1.408       .  A
C622        H627   1.083       .  S
C623        C624   1.409       .  A
C624        O628   1.372       .  S
C625        C630   1.406       .  A
C625        C634   1.407       .  A
O626        H642   0.992       .  S
O628        H639   0.992       .  S
C630        C631   1.400       .  A
C630        O635   1.372       .  S
C631        C632   1.405       .  A
C631        H636   1.084       .  S
C632        C633   1.406       .  A
C633        C634   1.404       .  A
C633        O637   1.372       .  S
C634        H638   1.083       .  S
O635        H640   0.991       .  S
O637        H641   0.991       .  S
C643        C644   1.403       .  A
C643        C648   1.399       .  A
C643        H653   1.083       .  S
C644        C645   1.410       .  A
C644        C649   1.486       .  S
C645        C646   1.403       .  A
C645        O650   1.373       .  S
C646        C647   1.405       .  A
C646        H651   1.083       .  S
C647        C648   1.412       .  A
C648        O652   1.372   1_565  S
C649        C654   1.412       .  A
C649        C658   1.405       .  A
O650        H666   0.992       .  S
O652        H663   0.992       .  S
C654        C655   1.400       .  A
C654        O659   1.371       .  S
C655        C656   1.400       .  A
C655        H660   1.083       .  S
C656        C657   1.408       .  A
C657        C658   1.399       .  A
C657        O661   1.372       .  S
C658        H662   1.083       .  S
O659        H664   0.991       .  S
O661        H665   0.992       .  S
C667        C668   1.409       .  A
C667        C672   1.409       .  A
C667        H677   1.083       .  S
C668        C669   1.406       .  A
C668        C673   1.491       .  S
C669        C670   1.395       .  A
C669        O674   1.372       .  S
C670        C671   1.410       .  A
C670        H675   1.083       .  S
C671        C672   1.414       .  A
C672        O676   1.371       .  S
C673        C678   1.412       .  A
C673        C682   1.406       .  A
O674        H690   0.992       .  S
O676        H687   0.991       .  S
C678        C679   1.404       .  A
C678        O683   1.371       .  S
C679        C680   1.402       .  A
C679        H684   1.083       .  S
C680        C681   1.406       .  A
C681        C682   1.397       .  A
C681        O685   1.372       .  S
C682        H686   1.083       .  S
O683        H688   0.992       .  S
O685        H689   0.992       .  S
C691        C692   1.403       .  A
C691        C696   1.397       .  A
C691        H701   1.084       .  S
C692        C693   1.413       .  A
C692        C697   1.488       .  S
C693        C694   1.406       .  A
C693        O698   1.371       .  S
C694        C695   1.402       .  A
C694        H699   1.083       .  S
C695        C696   1.410       .  A
C696        O700   1.373       .  S
C697        C702   1.412       .  A
C697        C706   1.404       .  A
O698        H714   0.992       .  S
O700        H711   0.992       .  S
C702        C703   1.405       .  A
C702        O707   1.371       .  S
C703        C704   1.403       .  A
C703        H708   1.083       .  S
C704        C705   1.407       .  A
C705        C706   1.394       .  A
C705        O709   1.371       .  S
C706        H710   1.084       .  S
O707        H712   0.992       .  S
O709        H713   0.991       .  S
C715        C716   1.407       .  A
C715        C720   1.402       .  A
C715        H725   1.083       .  S
C716        C717   1.411       .  A
C716        C721   1.492       .  S
C717        C718   1.402       .  A
C717        O722   1.372       .  S
C718        C719   1.403       .  A
C718        H723   1.083   1_455  S
C719        C720   1.406       .  A
C720        O724   1.372       .  S
C721        C726   1.411       .  A
C721        C730   1.409       .  A
O722        H738   0.992       .  S
O724        H735   0.992       .  S
C726        C727   1.400       .  A
C726        O731   1.371       .  S
C727        C728   1.402       .  A
C727        H732   1.084       .  S
C728        C729   1.404       .  A
C729        C730   1.403       .  A
C729        O733   1.372       .  S
C730        H734   1.083       .  S
O731        H736   0.992       .  S
O733        H737   0.991   1_455  S
C739        C740   1.404       .  A
C739        C744   1.400       .  A
C739        H749   1.083       .  S
C740        C741   1.412       .  A
C740        C745   1.486       .  S
C741        C742   1.403       .  A
C741        O746   1.373       .  S
C742        C743   1.399       .  A
C742        H747   1.084       .  S
C743        C744   1.407       .  A
C744        O748   1.372       .  S
C745        C750   1.408       .  A
C745        C754   1.406       .  A
O746        H762   0.991       .  S
O748        H759   0.992       .  S
C750        C751   1.401       .  A
C750        O755   1.372       .  S
C751        C752   1.404       .  A
C751        H756   1.084       .  S
C752        C753   1.405       .  A
C753        C754   1.401       .  A
C753        O757   1.371       .  S
C754        H758   1.083       .  S
O755        H760   0.992       .  S
O757        H761   0.992       .  S
C763        C764   1.404       .  A
C763        C768   1.403       .  A
C763        H773   1.083       .  S
C764        C765   1.408       .  A
C764        C769   1.478       .  S
C765        C766   1.395       .  A
C765        O770   1.372       .  S
C766        C767   1.401       .  A
C766        H771   1.083       .  S
C767        C768   1.407       .  A
C768        O772   1.372       .  S
C769        C774   1.404       .  A
C769        C778   1.403       .  A
O770        H786   0.992       .  S
O772        H783   0.992       .  S
C774        C775   1.399       .  A
C774        O779   1.372       .  S
C775        C776   1.409       .  A
C775        H780   1.084       .  S
C776        C777   1.411       .  A
C777        C778   1.399       .  A
C777        O781   1.371       .  S
C778        H782   1.082       .  S
O779        H784   0.992       .  S
O781        H785   0.991       .  S
C787        C788   1.403       .  A
C787        C792   1.395       .  A
C787        H797   1.084       .  S
C788        C789   1.412       .  A
C788        C793   1.480       .  S
C789        C790   1.400       .  A
C789        O794   1.372       .  S
C790        C791   1.399       .  A
C790        H795   1.084       .  S
C791        C792   1.408       .  A
C792        O796   1.372       .  S
C793        C798   1.409       .  A
C793        C802   1.405       .  A
O794        H810   0.992       .  S
O796        H807   0.992       .  S
C798        C799   1.398       .  A
C798        O803   1.371       .  S
C799        C800   1.400       .  A
C799        H804   1.083       .  S
C800        C801   1.407       .  A
C801        C802   1.396       .  A
C801        O805   1.372       .  S
C802        H806   1.084       .  S
O803        H808   0.992       .  S
O805        H809   0.992       .  S
C811        C812   1.400       .  A
C811        C816   1.399       .  A
C811        H821   1.084       .  S
C812        C813   1.410       .  A
C812        C817   1.481       .  S
C813        C814   1.401       .  A
C813        O818   1.369       .  S
C814        C815   1.400       .  A
C814        H819   1.084       .  S
C815        C816   1.411       .  A
C816        O820   1.372       .  S
C817        C822   1.408       .  A
C817        C826   1.402       .  A
O818        H834   0.992       .  S
O820        H831   0.992       .  S
C822        C823   1.400       .  A
C822        O827   1.371       .  S
C823        C824   1.402       .  A
C823        H828   1.084       .  S
C824        C825   1.407       .  A
C825        C826   1.404       .  A
C825        O829   1.374       .  S
C826        H830   1.084       .  S
O827        H832   0.992       .  S
O829        H833   0.991       .  S
C835        C836   1.399       .  A
C835        C840   1.400       .  A
C835        H845   1.083       .  S
C836        C837   1.405       .  A
C836        C841   1.475       .  S
C837        C838   1.395       .  A
C837        O842   1.367       .  S
C838        C839   1.402       .  A
C838        H843   1.084       .  S
C839        C840   1.416       .  A
C840        O844   1.372   1_545  S
C841        C846   1.407       .  A
C841        C850   1.402       .  A
O842        H858   0.992       .  S
O844        H855   0.992       .  S
C846        C847   1.402       .  A
C846        O851   1.371       .  S
C847        C848   1.403       .  A
C847        H852   1.083       .  S
C848        C849   1.407       .  A
C849        C850   1.395       .  A
C849        O853   1.372       .  S
C850        H854   1.084       .  S
O851        H856   0.992       .  S
O853        H857   0.991       .  S
C859        C860   1.408       .  A
C859        C864   1.396       .  A
C859        H869   1.082       .  S
C860        C861   1.414       .  A
C860        C865   1.497       .  S
C861        C862   1.404       .  A
C861        O866   1.371       .  S
C862        C863   1.402       .  A
C862        H867   1.083       .  S
C863        C864   1.405       .  A
C864        O868   1.372       .  S
C865        C870   1.409       .  A
C865        C874   1.411       .  A
O866        H882   0.992       .  S
O868        H879   0.992       .  S
C870        C871   1.394       .  A
C870        O875   1.372       .  S
C871        C872   1.408       .  A
C871        H876   1.084       .  S
C872        C873   1.411       .  A
C873        C874   1.409       .  A
C873        O877   1.371       .  S
C874        H878   1.083       .  S
O875        H880   0.992       .  S
O877        H881   0.992       .  S
C883        C884   1.408       .  A
C883        C888   1.408       .  A
C883        H893   1.083       .  S
C884        C885   1.412       .  A
C884        C889   1.492       .  S
C885        C886   1.398   1_455  A
C885        O890   1.372   1_455  S
C886        C887   1.400   1_655  A
C886        H891   1.084       .  S
C887        C888   1.405       .  A
C888        O892   1.374       .  S
C889        C894   1.407       .  A
C889        C898   1.409       .  A
O890        H906   0.992   1_655  S
O892        H903   0.991       .  S
C894        C895   1.397       .  A
C894        O899   1.372       .  S
C895        C896   1.410       .  A
C895        H900   1.083       .  S
C896        C897   1.412       .  A
C897        C898   1.407       .  A
C897        O901   1.371       .  S
C898        H902   1.083       .  S
O899        H904   0.992       .  S
O901        H905   0.992       .  S
C907        C908   1.403       .  A
C907        C912   1.399       .  A
C907        H917   1.083       .  S
C908        C909   1.414       .  A
C908        C913   1.489       .  S
C909        C910   1.403       .  A
C909        O914   1.371       .  S
C910        C911   1.401       .  A
C910        H915   1.083       .  S
C911        C912   1.408       .  A
C912        O916   1.371       .  S
C913        C918   1.412       .  A
C913        C922   1.405       .  A
O914        H930   0.991       .  S
O916        H927   0.991       .  S
C918        C919   1.403       .  A
C918        O923   1.371       .  S
C919        C920   1.402       .  A
C919        H924   1.084       .  S
C920        C921   1.405       .  A
C921        C922   1.397       .  A
C921        O925   1.372       .  S
C922        H926   1.080       .  S
O923        H928   0.992       .  S
O925        H929   0.992       .  S
C931        C932   1.405       .  A
C931        C936   1.401       .  A
C931        H941   1.083       .  S
C932        C933   1.410       .  A
C932        C937   1.481       .  S
C933        C934   1.395       .  A
C933        O938   1.372       .  S
C934        C935   1.402       .  A
C934        H939   1.084       .  S
C935        C936   1.406       .  A
C936        O940   1.371       .  S
C937        C942   1.410       .  A
C937        C946   1.403       .  A
O938        H954   0.992       .  S
O940        H951   0.992       .  S
C942        C943   1.399       .  A
C942        O947   1.371       .  S
C943        C944   1.401       .  A
C943        H948   1.084       .  S
C944        C945   1.408       .  A
C945        C946   1.397       .  A
C945        O949   1.373       .  S
C946        H950   1.084       .  S
O947        H952   0.992       .  S
O949        H953   0.992       .  S
C955        C956   1.403       .  A
C955        C960   1.395       .  A
C955        H965   1.082       .  S
C956        C957   1.415       .  A
C956        C961   1.492       .  S
C957        C958   1.406       .  A
C957        O962   1.372       .  S
C958        C959   1.403       .  A
C958        H963   1.083       .  S
C959        C960   1.410       .  A
C960        O964   1.372       .  S
C961        C966   1.412       .  A
C961        C970   1.409       .  A
O962        H978   0.991       .  S
O964        H975   0.992       .  S
C966        C967   1.396       .  A
C966        O971   1.372       .  S
C967        C968   1.401       .  A
C967        H972   1.084       .  S
C968        C969   1.403       .  A
C969        C970   1.405       .  A
C969        O973   1.373       .  S
C970        H974   1.083       .  S
O971        H976   0.992       .  S
O973        H977   0.992       .  S
C979        C980   1.409       .  A
C979        C984   1.402       .  A
C979        H989   1.083       .  S
C980        C981   1.413       .  A
C980        C985   1.494       .  S
C981        C982   1.400       .  A
C981        O986   1.374       .  S
C982        C983   1.403       .  A
C982        H987   1.084   1_565  S
C983        C984   1.405       .  A
C984        O988   1.371       .  S
C985        C990   1.413       .  A
C985        C994   1.408       .  A
O986       H1002   0.992       .  S
O988        H999   0.992       .  S
C990        C991   1.397       .  A
C990        O995   1.371       .  S
C991        C992   1.405       .  A
C991        H996   1.083       .  S
C992        C993   1.407       .  A
C993        C994   1.403       .  A
C993        O997   1.371       .  S
C994        H998   1.083       .  S
O995       H1000   0.991       .  S
O997       H1001   0.992       .  S
C1003      C1004   1.405       .  A
C1003      C1008   1.400       .  A
C1003      H1013   1.083       .  S
C1004      C1005   1.411       .  A
C1004      C1009   1.483       .  S
C1005      C1006   1.397       .  A
C1005      O1010   1.371       .  S
C1006      C1007   1.396       .  A
C1006      H1011   1.084       .  S
C1007      C1008   1.406       .  A
C1008      O1012   1.371       .  S
C1009      C1014   1.408       .  A
C1009      C1018   1.406       .  A
O1010      H1026   0.991       .  S
O1012      H1023   0.992       .  S
C1014      C1015   1.399       .  A
C1014      O1019   1.371       .  S
C1015      C1016   1.403       .  A
C1015      H1020   1.083       .  S
C1016      C1017   1.404       .  A
C1017      C1018   1.400       .  A
C1017      O1021   1.372       .  S
C1018      H1022   1.083       .  S
O1019      H1024   0.992       .  S
O1021      H1025   0.992       .  S
C1027      C1028   1.403       .  A
C1027      C1032   1.393       .  A
C1027      H1037   1.083       .  S
C1028      C1029   1.412       .  A
C1028      C1033   1.483       .  S
C1029      C1030   1.402       .  A
C1029      O1034   1.371       .  S
C1030      C1031   1.401       .  A
C1030      H1035   1.084       .  S
C1031      C1032   1.407       .  A
C1032      O1036   1.372   1_565  S
C1033      C1038   1.411       .  A
C1033      C1042   1.406       .  A
O1034      H1050   0.992       .  S
O1036      H1047   0.992       .  S
C1038      C1039   1.393       .  A
C1038      O1043   1.371   1_556  S
C1039      C1040   1.402       .  A
C1039      H1044   1.084   1_556  S
C1040      C1041   1.406       .  A
C1041      C1042   1.401       .  A
C1041      O1045   1.371       .  S
C1042      H1046   1.083       .  S
O1043      H1048   0.991       .  S
O1045      H1049   0.991       .  S
C1051      C1052   1.409       .  A
C1051      C1056   1.403       .  A
C1051      H1061   1.083       .  S
C1052      C1053   1.412       .  A
C1052      C1057   1.498       .  S
C1053      C1054   1.400       .  A
C1053      O1058   1.370   1_556  S
C1054      C1055   1.406       .  A
C1054      H1059   1.083   1_556  S
C1055      C1056   1.406       .  A
C1056      O1060   1.371       .  S
C1057      C1062   1.413       .  A
C1057      C1066   1.410       .  A
O1058      H1074   0.991       .  S
O1060      H1071   0.992       .  S
C1062      C1063   1.400       .  A
C1062      O1067   1.375       .  S
C1063      C1064   1.404       .  A
C1063      H1068   1.084       .  S
C1064      C1065   1.408       .  A
C1065      C1066   1.406       .  A
C1065      O1069   1.371       .  S
C1066      H1070   1.083       .  S
O1067      H1072   0.991       .  S
O1069      H1073   0.992       .  S
C1075      C1076   1.404       .  A
C1075      C1080   1.398       .  A
C1075      H1085   1.082       .  S
C1076      C1077   1.417       .  A
C1076      C1081   1.501       .  S
C1077      C1078   1.410       .  A
C1077      O1082   1.372       .  S
C1078      C1079   1.404       .  A
C1078      H1083   1.083       .  S
C1079      C1080   1.414       .  A
C1080      O1084   1.372       .  S
C1081      C1086   1.417       .  A
C1081      C1090   1.410       .  A
O1082      H1098   0.991       .  S
O1084      H1095   0.992       .  S
C1086      C1087   1.403       .  A
C1086      O1091   1.374       .  S
C1087      C1088   1.400       .  A
C1087      H1092   1.084       .  S
C1088      C1089   1.405       .  A
C1089      C1090   1.404       .  A
C1089      O1093   1.371       .  S
C1090      H1094   1.083       .  S
O1091      H1096   0.992       .  S
O1093      H1097   0.992       .  S
C1099      C1100   1.401       .  A
C1099      C1104   1.399       .  A
C1099      H1109   1.084       .  S
C1100      C1101   1.411       .  A
C1100      C1105   1.483       .  S
C1101      C1102   1.405       .  A
C1101      O1106   1.371       .  S
C1102      C1103   1.402       .  A
C1102      H1107   1.083       .  S
C1103      C1104   1.411       .  A
C1104      O1108   1.371       .  S
C1105      C1110   1.404       .  A
C1105      C1114   1.405       .  A
O1106      H1122   0.992       .  S
O1108      H1119   0.992       .  S
C1110      C1111   1.400       .  A
C1110      O1115   1.371       .  S
C1111      C1112   1.409       .  A
C1111      H1116   1.084       .  S
C1112      C1113   1.409       .  A
C1113      C1114   1.404       .  A
C1113      O1117   1.372       .  S
C1114      H1118   1.082       .  S
O1115      H1120   0.992       .  S
O1117      H1121   0.992       .  S
C1123      C1124   1.407       .  A
C1123      C1128   1.399       .  A
C1123      H1133   1.083       .  S
C1124      C1125   1.410       .  A
C1124      C1129   1.492       .  S
C1125      C1126   1.397       .  A
C1125      O1130   1.371       .  S
C1126      C1127   1.408       .  A
C1126      H1131   1.083       .  S
C1127      C1128   1.411       .  A
C1128      O1132   1.370       .  S
C1129      C1134   1.414       .  A
C1129      C1138   1.407       .  A
O1130      H1146   0.992       .  S
O1132      H1143   0.991       .  S
C1134      C1135   1.397       .  A
C1134      O1139   1.372       .  S
C1135      C1136   1.398       .  A
C1135      H1140   1.084       .  S
C1136      C1137   1.404       .  A
C1137      C1138   1.402       .  A
C1137      O1141   1.374       .  S
C1138      H1142   1.082       .  S
O1139      H1144   0.992       .  S
O1141      H1145   0.991       .  S
C1147      C1148   1.403       .  A
C1147      C1152   1.392   1_556  A
C1147      H1157   1.083   1_556  S
C1148      C1149   1.411       .  A
C1148      C1153   1.485       .  S
C1149      C1150   1.406       .  A
C1149      O1154   1.371       .  S
C1150      C1151   1.403       .  A
C1150      H1155   1.083       .  S
C1151      C1152   1.407   1_556  A
C1152      O1156   1.372       .  S
C1153      C1158   1.406       .  A
C1153      C1162   1.407       .  A
O1154      H1170   0.992       .  S
O1156      H1167   0.992       .  S
C1158      C1159   1.394       .  A
C1158      O1163   1.373       .  S
C1159      C1160   1.406       .  A
C1159      H1164   1.083       .  S
C1160      C1161   1.412       .  A
C1161      C1162   1.405       .  A
C1161      O1165   1.371       .  S
C1162      H1166   1.083       .  S
O1163      H1168   0.992       .  S
O1165      H1169   0.992       .  S
C1171      C1172   1.405       .  A
C1171      C1176   1.398       .  A
C1171      H1181   1.084       .  S
C1172      C1173   1.408       .  A
C1172      C1177   1.479       .  S
C1173      C1174   1.398       .  A
C1173      O1178   1.373       .  S
C1174      C1175   1.403       .  A
C1174      H1179   1.084       .  S
C1175      C1176   1.405       .  A
C1176      O1180   1.371       .  S
C1177      C1182   1.407       .  A
C1177      C1186   1.406       .  A
O1178      H1194   0.992       .  S
O1180      H1191   0.992       .  S
C1182      C1183   1.397       .  A
C1182      O1187   1.373       .  S
C1183      C1184   1.402       .  A
C1183      H1188   1.083       .  S
C1184      C1185   1.405       .  A
C1185      C1186   1.400       .  A
C1185      O1189   1.372       .  S
C1186      H1190   1.084       .  S
O1187      H1192   0.992       .  S
O1189      H1193   0.992       .  S
C1195      C1196   1.407       .  A
C1195      C1200   1.402       .  A
C1195      H1205   1.084       .  S
C1196      C1197   1.405       .  A
C1196      C1201   1.477       .  S
C1197      C1198   1.393       .  A
C1197      O1202   1.372       .  S
C1198      C1199   1.404       .  A
C1198      H1203   1.084       .  S
C1199      C1200   1.407       .  A
C1200      O1204   1.371       .  S
C1201      C1206   1.409       .  A
C1201      C1210   1.403       .  A
O1202      H1218   0.992       .  S
O1204      H1215   0.992   1_556  S
C1206      C1207   1.398       .  A
C1206      O1211   1.371       .  S
C1207      C1208   1.400       .  A
C1207      H1212   1.084       .  S
C1208      C1209   1.407       .  A
C1209      C1210   1.397       .  A
C1209      O1213   1.371       .  S
C1210      H1214   1.084       .  S
O1211      H1216   0.992       .  S
O1213      H1217   0.991       .  S
C1219      C1220   1.406       .  A
C1219      C1224   1.402       .  A
C1219      H1229   1.083       .  S
C1220      C1221   1.406       .  A
C1220      C1225   1.483       .  S
C1221      C1222   1.398       .  A
C1221      O1226   1.371       .  S
C1222      C1223   1.405       .  A
C1222      H1227   1.083       .  S
C1223      C1224   1.406       .  A
C1224      O1228   1.372       .  S
C1225      C1230   1.405       .  A
C1225      C1234   1.405       .  A
O1226      H1242   0.992       .  S
O1228      H1239   0.992       .  S
C1230      C1231   1.401       .  A
C1230      O1235   1.372       .  S
C1231      C1232   1.409       .  A
C1231      H1236   1.084       .  S
C1232      C1233   1.407       .  A
C1233      C1234   1.400       .  A
C1233      O1237   1.372       .  S
C1234      H1238   1.081       .  S
O1235      H1240   0.992   1_545  S
O1237      H1241   0.992       .  S
C1243      C1244   1.408       .  A
C1243      C1248   1.406       .  A
C1243      H1253   1.083       .  S
C1244      C1245   1.413       .  A
C1244      C1249   1.493       .  S
C1245      C1246   1.394       .  A
C1245      O1250   1.372       .  S
C1246      C1247   1.399       .  A
C1246      H1251   1.081       .  S
C1247      C1248   1.407       .  A
C1248      O1252   1.371       .  S
C1249      C1254   1.407       .  A
C1249      C1258   1.408       .  A
O1250      H1266   0.992       .  S
O1252      H1263   0.992       .  S
C1254      C1255   1.390       .  A
C1254      O1259   1.372       .  S
C1255      C1256   1.409       .  A
C1255      H1260   1.082       .  S
C1256      C1257   1.414       .  A
C1257      C1258   1.411       .  A
C1257      O1261   1.373       .  S
C1258      H1262   1.083       .  S
O1259      H1264   0.992       .  S
O1261      H1265   0.991       .  S
C1267      C1268   1.407       .  A
C1267      C1272   1.405       .  A
C1267      H1277   1.083       .  S
C1268      C1269   1.406       .  A
C1268      C1273   1.487       .  S
C1269      C1270   1.392       .  A
C1269      O1274   1.372       .  S
C1270      C1271   1.409       .  A
C1270      H1275   1.083       .  S
C1271      C1272   1.414       .  A
C1272      O1276   1.371       .  S
C1273      C1278   1.412       .  A
C1273      C1282   1.405       .  A
O1274      H1290   0.992       .  S
O1276      H1287   0.992       .  S
C1278      C1279   1.403       .  A
C1278      O1283   1.372       .  S
C1279      C1280   1.401       .  A
C1279      H1284   1.083       .  S
C1280      C1281   1.404       .  A
C1281      C1282   1.395       .  A
C1281      O1285   1.372       .  S
C1282      H1286   1.083       .  S
O1283      H1288   0.992       .  S
O1285      H1289   0.992       .  S
C1291      C1292   1.406       .  A
C1291      C1296   1.392       .  A
C1291      H1301   1.082       .  S
C1292      C1293   1.414       .  A
C1292      C1297   1.491       .  S
C1293      C1294   1.405       .  A
C1293      O1298   1.371       .  S
C1294      C1295   1.402       .  A
C1294      H1299   1.083       .  S
C1295      C1296   1.404       .  A
C1296      O1300   1.371       .  S
C1297      C1302   1.407       .  A
C1297      C1306   1.409       .  A
O1298      H1314   0.992       .  S
O1300      H1311   0.992       .  S
C1302      C1303   1.394       .  A
C1302      O1307   1.374       .  S
C1303      C1304   1.409       .  A
C1303      H1308   1.083       .  S
C1304      C1305   1.412       .  A
C1305      C1306   1.406       .  A
C1305      O1309   1.371       .  S
C1306      H1310   1.083       .  S
O1307      H1312   0.992       .  S
O1309      H1313   0.992       .  S
C1315      C1316   1.401       .  A
C1315      C1320   1.394       .  A
C1315      H1325   1.084       .  S
C1316      C1317   1.413       .  A
C1316      C1321   1.483       .  S
C1317      C1318   1.404       .  A
C1317      O1322   1.372       .  S
C1318      C1319   1.400       .  A
C1318      H1323   1.083       .  S
C1319      C1320   1.409       .  A
C1320      O1324   1.372       .  S
C1321      C1326   1.410       .  A
C1321      C1330   1.404       .  A
O1322      H1338   0.992       .  S
O1324      H1335   0.992       .  S
C1326      C1327   1.400       .  A
C1326      O1331   1.371       .  S
C1327      C1328   1.401       .  A
C1327      H1332   1.083       .  S
C1328      C1329   1.407       .  A
C1329      C1330   1.397       .  A
C1329      O1333   1.371       .  S
C1330      H1334   1.084       .  S
O1331      H1336   0.991       .  S
O1333      H1337   0.991       .  S
C1339      C1340   1.405       .  A
C1339      C1344   1.403       .  A
C1339      H1349   1.083       .  S
C1340      C1341   1.407       .  A
C1340      C1345   1.484       .  S
C1341      C1342   1.398       .  A
C1341      O1346   1.371   1_556  S
C1342      C1343   1.405       .  A
C1342      H1347   1.084   1_556  S
C1343      C1344   1.407       .  A
C1344      O1348   1.371       .  S
C1345      C1350   1.404       .  A
C1345      C1354   1.404       .  A
O1346      H1362   0.991   1_554  S
O1348      H1359   0.991       .  S
C1350      C1351   1.402       .  A
C1350      O1355   1.372       .  S
C1351      C1352   1.410       .  A
C1351      H1356   1.083       .  S
C1352      C1353   1.410       .  A
C1353      C1354   1.402       .  A
C1353      O1357   1.372   1_556  S
C1354      H1358   1.080   1_556  S
O1355      H1360   0.992       .  S
O1357      H1361   0.992       .  S
C1363      C1364   1.400       .  A
C1363      C1368   1.398       .  A
C1363      H1373   1.084       .  S
C1364      C1365   1.409       .  A
C1364      C1369   1.476       .  S
C1365      C1366   1.401       .  A
C1365      O1370   1.371   1_455  S
C1366      C1367   1.401       .  A
C1366      H1371   1.084       .  S
C1367      C1368   1.409       .  A
C1368      O1372   1.372       .  S
C1369      C1374   1.405       .  A
C1369      C1378   1.404       .  A
O1370      H1386   0.991   1_655  S
O1372      H1383   0.992       .  S
C1374      C1375   1.399       .  A
C1374      O1379   1.372       .  S
C1375      C1376   1.404       .  A
C1375      H1380   1.084   1_455  S
C1376      C1377   1.405       .  A
C1377      C1378   1.403       .  A
C1377      O1381   1.373       .  S
C1378      H1382   1.084       .  S
O1379      H1384   0.992   1_455  S
O1381      H1385   0.991       .  S
C1387      C1388   1.404       .  A
C1387      C1392   1.398       .  A
C1387      H1397   1.083   1_556  S
C1388      C1389   1.408       .  A
C1388      C1393   1.480       .  S
C1389      C1390   1.403       .  A
C1389      O1394   1.371       .  S
C1390      C1391   1.404       .  A
C1390      H1395   1.084       .  S
C1391      C1392   1.405       .  A
C1392      O1396   1.371   1_556  S
C1393      C1398   1.410       .  A
C1393      C1402   1.402       .  A
O1394      H1410   0.992       .  S
O1396      H1407   0.992       .  S
C1398      C1399   1.401       .  A
C1398      O1403   1.372       .  S
C1399      C1400   1.400       .  A
C1399      H1404   1.083       .  S
C1400      C1401   1.410       .  A
C1401      C1402   1.401       .  A
C1401      O1405   1.371   1_556  S
C1402      H1406   1.083       .  S
O1403      H1408   0.992       .  S
O1405      H1409   0.992   1_554  S
C1411      C1412   1.404       .  A
C1411      C1416   1.397       .  A
C1411      H1421   1.083       .  S
C1412      C1413   1.413       .  A
C1412      C1417   1.488       .  S
C1413      C1414   1.403       .  A
C1413      O1418   1.371       .  S
C1414      C1415   1.401       .  A
C1414      H1419   1.083       .  S
C1415      C1416   1.406       .  A
C1416      O1420   1.370       .  S
C1417      C1422   1.409       .  A
C1417      C1426   1.406       .  A
O1418      H1434   0.992       .  S
O1420      H1431   0.991       .  S
C1422      C1423   1.399       .  A
C1422      O1427   1.372       .  S
C1423      C1424   1.406       .  A
C1423      H1428   1.084       .  S
C1424      C1425   1.411       .  A
C1425      C1426   1.400       .  A
C1425      O1429   1.372       .  S
C1426      H1430   1.082       .  S
O1427      H1432   0.992       .  S
O1429      H1433   0.992       .  S
C1435      C1436   1.401       .  A
C1435      C1440   1.401       .  A
C1435      H1445   1.084       .  S
C1436      C1437   1.408       .  A
C1436      C1441   1.479       .  S
C1437      C1438   1.402       .  A
C1437      O1442   1.371       .  S
C1438      C1439   1.403       .  A
C1438      H1443   1.084       .  S
C1439      C1440   1.411       .  A
C1440      O1444   1.372       .  S
C1441      C1446   1.404       .  A
C1441      C1450   1.403       .  A
O1442      H1458   0.992       .  S
O1444      H1455   0.992       .  S
C1446      C1447   1.400       .  A
C1446      O1451   1.371       .  S
C1447      C1448   1.406       .  A
C1447      H1452   1.084       .  S
C1448      C1449   1.407       .  A
C1449      C1450   1.404       .  A
C1449      O1453   1.373       .  S
C1450      H1454   1.084       .  S
O1451      H1456   0.992       .  S
O1453      H1457   0.991       .  S
C1459      C1460   1.405       .  A
C1459      C1464   1.398       .  A
C1459      H1469   1.083       .  S
C1460      C1461   1.414       .  A
C1460      C1465   1.493       .  S
C1461      C1462   1.405       .  A
C1461      O1466   1.371       .  S
C1462      C1463   1.401       .  A
C1462      H1467   1.083       .  S
C1463      C1464   1.407       .  A
C1464      O1468   1.371       .  S
C1465      C1470   1.410       .  A
C1465      C1474   1.408       .  A
O1466      H1482   0.992       .  S
O1468      H1479   0.992       .  S
C1470      C1471   1.397       .  A
C1470      O1475   1.372       .  S
C1471      C1472   1.406       .  A
C1471      H1476   1.084       .  S
C1472      C1473   1.411       .  A
C1473      C1474   1.406       .  A
C1473      O1477   1.371       .  S
C1474      H1478   1.083       .  S
O1475      H1480   0.992       .  S
O1477      H1481   0.992       .  S
C1483      C1484   1.407       .  A
C1483      C1488   1.404       .  A
C1483      H1493   1.083       .  S
C1484      C1485   1.411       .  A
C1484      C1489   1.487       .  S
C1485      C1486   1.397       .  A
C1485      O1490   1.371       .  S
C1486      C1487   1.398       .  A
C1486      H1491   1.084       .  S
C1487      C1488   1.406       .  A
C1488      O1492   1.371       .  S
C1489      C1494   1.409       .  A
C1489      C1498   1.407       .  A
O1490      H1506   0.991   1_455  S
O1492      H1503   0.992       .  S
C1494      C1495   1.401       .  A
C1494      O1499   1.371       .  S
C1495      C1496   1.403       .  A
C1495      H1500   1.083       .  S
C1496      C1497   1.404       .  A
C1497      C1498   1.399       .  A
C1497      O1501   1.371       .  S
C1498      H1502   1.083       .  S
O1499      H1504   0.992       .  S
O1501      H1505   0.992       .  S
C1507      C1508   1.409       .  A
C1507      C1512   1.404       .  A
C1507      H1517   1.081       .  S
C1508      C1509   1.410       .  A
C1508      C1513   1.498       .  S
C1509      C1510   1.394       .  A
C1509      O1514   1.372       .  S
C1510      C1511   1.410       .  A
C1510      H1515   1.082       .  S
C1511      C1512   1.414       .  A
C1512      O1516   1.371       .  S
C1513      C1518   1.415       .  A
C1513      C1522   1.409       .  A
O1514      H1530   0.992       .  S
O1516      H1527   0.992       .  S
C1518      C1519   1.400       .  A
C1518      O1523   1.371       .  S
C1519      C1520   1.400       .  A
C1519      H1524   1.084       .  S
C1520      C1521   1.403       .  A
C1521      C1522   1.403       .  A
C1521      O1525   1.378       .  S
C1522      H1526   1.081       .  S
O1523      H1528   0.992       .  S
O1525      H1529   0.992       .  S
C1531      C1532   1.407       .  A
C1531      C1536   1.397       .  A
C1531      H1541   1.083       .  S
C1532      C1533   1.413       .  A
C1532      C1537   1.487       .  S
C1533      C1534   1.399       .  A
C1533      O1538   1.373       .  S
C1534      C1535   1.398       .  A
C1534      H1539   1.084       .  S
C1535      C1536   1.403       .  A
C1536      O1540   1.372       .  S
C1537      C1542   1.413       .  A
C1537      C1546   1.402       .  A
O1538      H1554   0.991       .  S
O1540      H1551   0.992       .  S
C1542      C1543   1.401       .  A
C1542      O1547   1.372       .  S
C1543      C1544   1.404       .  A
C1543      H1548   1.083       .  S
C1544      C1545   1.413       .  A
C1545      C1546   1.396       .  A
C1545      O1549   1.372       .  S
C1546      H1550   1.083       .  S
O1547      H1552   0.990       .  S
O1549      H1553   0.992       .  S
C1555      C1556   1.405       .  A
C1555      C1560   1.402       .  A
C1555      H1565   1.083       .  S
C1556      C1557   1.410       .  A
C1556      C1561   1.483       .  S
C1557      C1558   1.396       .  A
C1557      O1562   1.370       .  S
C1558      C1559   1.397       .  A
C1558      H1563   1.084       .  S
C1559      C1560   1.406       .  A
C1560      O1564   1.371       .  S
C1561      C1566   1.409       .  A
C1561      C1570   1.405       .  A
O1562      H1578   0.992       .  S
O1564      H1575   0.992       .  S
C1566      C1567   1.402       .  A
C1566      O1571   1.372       .  S
C1567      C1568   1.403       .  A
C1567      H1572   1.084       .  S
C1568      C1569   1.403       .  A
C1569      C1570   1.397       .  A
C1569      O1573   1.371       .  S
C1570      H1574   1.083       .  S
O1571      H1576   0.991       .  S
O1573      H1577   0.991       .  S
C1579      C1580   1.402       .  A
C1579      C1584   1.405       .  A
C1579      H1589   1.084       .  S
C1580      C1581   1.411       .  A
C1580      C1585   1.486       .  S
C1581      C1582   1.405       .  A
C1581      O1586   1.371       .  S
C1582      C1583   1.403       .  A
C1582      H1587   1.083       .  S
C1583      C1584   1.411       .  A
C1584      O1588   1.375       .  S
C1585      C1590   1.405       .  A
C1585      C1594   1.405       .  A
O1586      H1602   0.992       .  S
O1588      H1599   0.992       .  S
C1590      C1591   1.401       .  A
C1590      O1595   1.371       .  S
C1591      C1592   1.410       .  A
C1591      H1596   1.084       .  S
C1592      C1593   1.409       .  A
C1593      C1594   1.403       .  A
C1593      O1597   1.371       .  S
C1594      H1598   1.081       .  S
O1595      H1600   0.992       .  S
O1597      H1601   0.991       .  S
C1603      C1604   1.404       .  A
C1603      C1608   1.399       .  A
C1603      H1613   1.083       .  S
C1604      C1605   1.414       .  A
C1604      C1609   1.491       .  S
C1605      C1606   1.403       .  A
C1605      O1610   1.372       .  S
C1606      C1607   1.403       .  A
C1606      H1611   1.083       .  S
C1607      C1608   1.412       .  A
C1608      O1612   1.372       .  S
C1609      C1614   1.413       .  A
C1609      C1618   1.408       .  A
O1610      H1626   0.992       .  S
O1612      H1623   0.992       .  S
C1614      C1615   1.402       .  A
C1614      O1619   1.374       .  S
C1615      C1616   1.401       .  A
C1615      H1620   1.084       .  S
C1616      C1617   1.402       .  A
C1617      C1618   1.399       .  A
C1617      O1621   1.371       .  S
C1618      H1622   1.082       .  S
O1619      H1624   0.992   1_556  S
O1621      H1625   0.991       .  S
C1627      C1628   1.404       .  A
C1627      C1632   1.392       .  A
C1627      H1637   1.083       .  S
C1628      C1629   1.416       .  A
C1628      C1633   1.496       .  S
C1629      C1630   1.408       .  A
C1629      O1634   1.372       .  S
C1630      C1631   1.405       .  A
C1630      H1635   1.083       .  S
C1631      C1632   1.412       .  A
C1632      O1636   1.372       .  S
C1633      C1638   1.415       .  A
C1633      C1642   1.408       .  A
O1634      H1650   0.992       .  S
O1636      H1647   0.992       .  S
C1638      C1639   1.405       .  A
C1638      O1643   1.370       .  S
C1639      C1640   1.401       .  A
C1639      H1644   1.083       .  S
C1640      C1641   1.402       .  A
C1641      C1642   1.393       .  A
C1641      O1645   1.370       .  S
C1642      H1646   1.083       .  S
O1643      H1648   0.992       .  S
O1645      H1649   0.991       .  S
C1651      C1652   1.406       .  A
C1651      C1656   1.401       .  A
C1651      H1661   1.083       .  S
C1652      C1653   1.411   1_455  A
C1652      C1657   1.485       .  S
C1653      C1654   1.396       .  A
C1653      O1658   1.373       .  S
C1654      C1655   1.401   1_655  A
C1654      H1659   1.084       .  S
C1655      C1656   1.404       .  A
C1656      O1660   1.371       .  S
C1657      C1662   1.412       .  A
C1657      C1666   1.402       .  A
O1658      H1674   0.992       .  S
O1660      H1671   0.992       .  S
C1662      C1663   1.404       .  A
C1662      O1667   1.372       .  S
C1663      C1664   1.402       .  A
C1663      H1668   1.084       .  S
C1664      C1665   1.408       .  A
C1665      C1666   1.395       .  A
C1665      O1669   1.373       .  S
C1666      H1670   1.083       .  S
O1667      H1672   0.992       .  S
O1669      H1673   0.992       .  S
