geometry optimzed in LAMMPS
_audit_creation_date              2020-12-01 
_audit_creation_method            'lammps2cif' 
_symmetry_space_group_name_H-M    'P1' 
_symmetry_Int_Tables_number       1 
_symmetry_cell_setting            triclinic 
loop_ 
_symmetry_equiv_pos_as_xyz 
  x,y,z 
_cell_length_a                    30.02710094 
_cell_length_b                    30.705740078718602 
_cell_length_c                    43.75052400041578 
_cell_angle_alpha                 89.97252158920713 
_cell_angle_beta                  89.47523307216056 
_cell_angle_gamma                 90.05352534737004 
loop_ 
_atom_site_label 
_atom_site_type_symbol 
_atom_site_fract_x 
_atom_site_fract_y 
_atom_site_fract_z 
_atom_site_charge 
O1          O  0.46628261  0.81720069  0.29648701    -0.55500
C2          C  0.44585310  0.82702967  0.19589221     0.77200
O3          O  0.33498197  0.83003727  0.25469472    -0.56600
C4          C  0.44119478  0.82748550  0.31894359     0.77900
C5          C  0.43900688  0.93562565  0.25686659     0.79500
Cd6        Cd  0.41595138  0.84629470  0.25715069     1.37500
O7          O  0.46896832  0.81525263  0.21869895    -0.55500
O8          O  0.46676172  0.90475002  0.25781631    -0.54300
C9          C  0.34277069  0.78924002  0.25427454     0.79500
O10         O  0.39792728  0.92521401  0.25651328    -0.56700
O11         O  0.41003501  0.84714504  0.20190937    -0.55100
O12         O  0.40433147  0.84517853  0.31250638    -0.55100
O13         O  0.38305803  0.77754592  0.25620997    -0.54300
O14         O  0.18860139  0.52949100  0.28844243    -0.55500
C15         C  0.17721498  0.55075477  0.18640044     0.77200
O16         O  0.07736900  0.59414371  0.24536524    -0.56600
C17         C  0.17420918  0.55272333  0.31053540     0.77100
C18         C  0.21170201  0.65201866  0.24809742     0.79500
Cd19       Cd  0.15723195  0.57721609  0.24816430     1.37500
O20         O  0.18875208  0.52690617  0.20880474    -0.55500
O21         O  0.22605156  0.61325627  0.24887485    -0.54300
C22         C  0.06591747  0.55433252  0.24755751     0.79500
O23         O  0.16962379  0.65705389  0.24764172    -0.56700
O24         O  0.15830271  0.58636301  0.19306011    -0.55100
O25         O  0.15345854  0.58710716  0.30337804    -0.55100
O26         O  0.09673763  0.52655477  0.25014201    -0.54300
O27         O  0.74533548  0.51899717  0.45330211    -0.55500
C28         C  0.75973236  0.53786536  0.05614698     0.77200
O29         O  0.86051599  0.57742182  0.49602303    -0.56600
C30         C  0.75908985  0.54467565  0.43231583     0.77100
C31         C  0.72732686  0.64047716  0.99500100     0.79500
Cd32       Cd  0.77965397  0.56296785  0.49465921     1.37500
O33         O  0.74735887  0.51334970  0.03429944    -0.55500
O34         O  0.71079144  0.60266972  0.49322594    -0.54300
C35         C  0.87210805  0.53766357  0.49400469     0.79500
O36         O  0.76955916  0.64318002  0.49738441    -0.56700
O37         O  0.77957990  0.57275272  0.04886156    -0.55100
O38         O  0.78132936  0.57746222  0.44085700    -0.55100
O39         O  0.84080670  0.51016904  0.99158567    -0.54300
O40         O  0.47461124  0.80806715  0.04682884    -0.55500
C41         C  0.49459894  0.82408896  0.44558205     0.77200
O42         O  0.54312863  0.91742905  0.00748019    -0.56600
C43         C  0.49987918  0.81822400  0.06893559     0.77100
C44         C  0.59928803  0.78014312  0.00094711     0.79500
Cd45       Cd  0.52494395  0.83804707  0.00695933     1.37500
O46         O  0.47168977  0.80992496  0.46814906    -0.55500
O47         O  0.55898534  0.76795484  0.00008479    -0.54300
C48         C  0.50254211  0.92937189  0.00941123     0.79500
O49         O  0.60632514  0.82057981  0.00540107    -0.56700
O50         O  0.53036699  0.84390195  0.45192723    -0.55100
O51         O  0.53716321  0.83499649  0.06195064    -0.55100
O52         O  0.47393565  0.89912229  0.01041253    -0.54300
O53         O  0.18082191  0.52236420  0.46028055    -0.55500
C54         C  0.17203815  0.49787029  0.05969215     0.77200
O55         O  0.07235384  0.44621373  0.49554863    -0.56600
C56         C  0.17107841  0.49890679  0.43732538     0.77100
C57         C  0.21445930  0.39573562  0.99822141     0.79500
Cd58       Cd  0.15317253  0.46829590  0.99853533     1.37500
O59         O  0.18238614  0.52129290  0.03670039    -0.55500
O60         O  0.22630756  0.43518196  0.49566456    -0.54300
C61         C  0.05837609  0.48521423  0.49805457     0.79500
O62         O  0.17274692  0.38890243  0.50107649    -0.56700
O63         O  0.15377533  0.46161133  0.05399715    -0.55100
O64         O  0.15425853  0.46192877  0.44304652    -0.55100
O65         O  0.08798829  0.51411744  0.00106374    -0.54300
O66         O  0.48075163  0.22889896  0.04630616    -0.55500
C67         C  0.45730753  0.21872052  0.44660054     0.77200
O68         O  0.40681120  0.12391463  0.00936704    -0.56600
C69         C  0.45530498  0.22125294  0.06908432     0.77100
C70         C  0.35221447  0.26257796  0.00312869     0.79500
Cd71       Cd  0.42652198  0.20345941  0.00777831     1.37500
O72         O  0.48029555  0.23167182  0.46916505    -0.55500
O73         O  0.39260674  0.27464056  0.00234625    -0.54300
C74         C  0.44731334  0.11146617  0.00875309     0.79500
O75         O  0.34534017  0.22190422  0.00672954    -0.56700
O76         O  0.42081573  0.19979186  0.45276404    -0.55100
O77         O  0.41625845  0.20832423  0.06318093    -0.55100
O78         O  0.47620568  0.14137454  0.00750207    -0.54300
O79         O  0.75879802  0.52724100  0.28171820    -0.55500
C80         C  0.76741721  0.49596752  0.18395227     0.77200
O81         O  0.87152975  0.45732490  0.24832324    -0.56600
C82         C  0.76540608  0.50302660  0.30480075     0.77100
C83         C  0.73950381  0.39631442  0.24570658     0.79500
Cd84       Cd  0.79115484  0.47382007  0.24513121     1.37500
O85         O  0.75683497  0.52101255  0.20599798    -0.55500
O86         O  0.72375569  0.43452811  0.24516107    -0.54300
C87         C  0.88332816  0.49668027  0.24417237     0.79500
O88         O  0.78176480  0.39295548  0.24645688    -0.56700
O89         O  0.78827152  0.46152886  0.19069554    -0.55100
O90         O  0.78331990  0.46643161  0.29985803    -0.55100
O91         O  0.85258012  0.52414851  0.24032757    -0.54300
O92         O  0.48757184  0.23017023  0.21781599    -0.55500
C93         C  0.51185144  0.21642330  0.31972598     0.77200
O94         O  0.54814323  0.12029894  0.25796437    -0.56600
C95         C  0.50992514  0.21414636  0.19561371     0.77100
C96         C  0.61081132  0.25632517  0.25341737     0.79500
Cd97       Cd  0.53663378  0.19919563  0.25754240     1.37500
O98         O  0.48836431  0.23061939  0.29776163    -0.55500
O99         O  0.57042552  0.26804519  0.25527526    -0.54300
C100        C  0.50648991  0.11198006  0.25786920     0.79500
O101        O  0.61848744  0.21552311  0.25475528    -0.56700
O102        O  0.54689200  0.19564325  0.31252136    -0.55100
O103        O  0.54407743  0.19213622  0.20257501    -0.55100
O104        O  0.48026149  0.14423619  0.25797131    -0.54300
C105        C  0.69142570  0.28174585  0.25476591     0.25900
C106        C  0.64591759  0.28994934  0.24949023    -0.22200
C107        C  0.63294953  0.33213812  0.24073532     0.20800
C108        C  0.66371616  0.36569978  0.23883187     0.25900
C109        C  0.70883600  0.35846711  0.24553423    -0.22100
C110        C  0.72272670  0.31586504  0.25278083     0.20800
F111        F  0.76618694  0.30740872  0.25868115    -0.12100
F112        F  0.70545055  0.24127020  0.26258005    -0.14400
F113        F  0.64873490  0.40562710  0.23039518    -0.14400
F114        F  0.58997667  0.34147996  0.23384762    -0.12100
C115        C  0.45407943  0.23462399  0.15536079     0.25900
C116        C  0.49693441  0.21987881  0.16309148    -0.22200
C117        C  0.52685490  0.20870517  0.13927181     0.20800
C118        C  0.51393648  0.21138250  0.10866475     0.25900
C119        C  0.47068496  0.22466970  0.10107643    -0.22100
C120        C  0.44100128  0.23662540  0.12469752     0.20800
F121        F  0.39904154  0.24987171  0.11811323    -0.12100
F122        F  0.42412350  0.24556552  0.17747310    -0.14400
F123        F  0.54297212  0.19836688  0.08651495    -0.14400
F124        F  0.56852681  0.19422485  0.14547620    -0.12100
C125        C  0.51736256  0.21974169  0.40646001     0.25900
C126        C  0.47217910  0.22392187  0.41447914    -0.22200
C127        C  0.44059343  0.22909712  0.39118122     0.20800
C128        C  0.45371366  0.22860618  0.36040959     0.25900
C129        C  0.49866962  0.22230596  0.35224951    -0.22100
C130        C  0.53047409  0.21856328  0.37565364     0.20800
F131        F  0.57427403  0.21288520  0.36878541    -0.12100
F132        F  0.54857513  0.21417989  0.42838161    -0.14400
F133        F  0.42198579  0.23200638  0.33862832    -0.14400
F134        F  0.39672991  0.23397566  0.39819806    -0.12100
C135        C  0.23848224  0.31804679  0.00884661     0.25900
C136        C  0.24833435  0.36019615  0.99789417    -0.22200
C137        C  0.29183982  0.36878817  0.48715394     0.20800
C138        C  0.32484538  0.33675596  0.48815031     0.25900
C139        C  0.31559717  0.29507043  0.00012782    -0.22100
C140        C  0.27173984  0.28581447  0.00987749     0.20800
F141        F  0.26124703  0.24598000  0.02132348    -0.12100
F142        F  0.19708341  0.30834030  0.01953684    -0.14400
F143        F  0.36603628  0.34676189  0.47712277    -0.14400
F144        F  0.30281183  0.40843276  0.47550641    -0.12100
C145        C  0.44285833  0.98729463  0.01026314     0.25900
C146        C  0.48850858  0.97599152  0.01010469    -0.22200
C147        C  0.52022607  0.00976583  0.51014594     0.20800
C148        C  0.50678560  0.05345601  0.50983929     0.25900
C149        C  0.46111910  0.06475570  0.00946670    -0.22100
C150        C  0.42941568  0.03102230  0.00980388     0.20800
F151        F  0.38519617  0.04015494  0.00945425    -0.12100
F152        F  0.41081964  0.95606126  0.01065856    -0.14400
F153        F  0.53888192  0.08463333  0.50984343    -0.14400
F154        F  0.56446342  0.00067545  0.51050666    -0.12100
C155        C  0.95278148  0.55319413  0.50396977     0.25900
C156        C  0.91960725  0.52374556  0.49485074    -0.22200
C157        C  0.93232280  0.48074317  0.98722506     0.20800
C158        C  0.97716959  0.46784775  0.98844587     0.25900
C159        C  0.01034567  0.49756978  0.49741069    -0.22100
C160        C  0.99738344  0.54038407  0.50517541     0.20800
F161        F  0.02785447  0.57027977  0.51427269    -0.12100
F162        F  0.94213418  0.59450000  0.51231725    -0.14400
F163        F  0.98807063  0.42652668  0.98030275    -0.14400
F164        F  0.90150026  0.45114095  0.97819612    -0.12100
C165        C  0.76437754  0.56849890  0.37749202     0.25900
C166        C  0.75189792  0.53658486  0.39925417    -0.22200
C167        C  0.73678896  0.49589530  0.38877997     0.20800
C168        C  0.73877545  0.48582546  0.35759733     0.25900
C169        C  0.75470235  0.51658447  0.33631085    -0.22100
C170        C  0.76559588  0.55856259  0.34631847     0.20800
F171        F  0.78098580  0.58890669  0.32623594    -0.12100
F172        F  0.77742644  0.60888481  0.38635735    -0.14400
F173        F  0.72645175  0.44544732  0.34823658    -0.14400
F174        F  0.72228272  0.46499131  0.40871863    -0.12100
C175        C  0.75569895  0.47304274  0.12967693     0.25900
C176        C  0.75770289  0.50648029  0.15170131    -0.22200
C177        C  0.75452838  0.54999242  0.14209171     0.20800
C178        C  0.75291837  0.55998608  0.11095318     0.25900
C179        C  0.75345248  0.52663885  0.08879977    -0.22100
C180        C  0.75322370  0.48303013  0.09851449     0.20800
F181        F  0.75373436  0.45004586  0.07786112    -0.12100
F182        F  0.75746180  0.43056670  0.13824366    -0.14400
F183        F  0.75244864  0.60252609  0.10244485    -0.14400
F184        F  0.75594360  0.58307951  0.16264518    -0.12100
C185        C  0.70712894  0.71685897  0.01113705     0.25900
C186        C  0.69796910  0.67911150  0.99405104    -0.22200
C187        C  0.65851652  0.67715205  0.97706937     0.20800
C188        C  0.62769547  0.71103918  0.97838612     0.25900
C189        C  0.63541064  0.74777456  0.99680893    -0.22100
C190        C  0.67599796  0.75101752  0.01252028     0.20800
F191        F  0.68440080  0.78594800  0.03057597    -0.12100
F192        F  0.74488494  0.71958761  0.02785835    -0.14400
F193        F  0.59013838  0.70793898  0.46154281    -0.14400
F194        F  0.64976871  0.64233969  0.45902668    -0.12100
C195        C  0.00599602  0.50201548  0.26244871     0.25900
C196        C  0.01909208  0.54019254  0.24695074    -0.22200
C197        C  0.98755971  0.56338192  0.22998348     0.20800
C198        C  0.94356668  0.54870969  0.22859504     0.25900
C199        C  0.93035588  0.51062760  0.24426459    -0.22100
C200        C  0.96201756  0.48739809  0.26113720     0.20800
F201        F  0.95013077  0.45136713  0.27726853    -0.12100
F202        F  0.03554782  0.47937677  0.27957384    -0.14400
F203        F  0.91411276  0.57135416  0.21140452    -0.14400
F204        F  0.99960241  0.59947489  0.21395258    -0.12100
C205        C  0.17325226  0.55789135  0.39748525     0.25900
C206        C  0.17762739  0.51370182  0.40529248    -0.22200
C207        C  0.18493700  0.48309283  0.38180722     0.20800
C208        C  0.18659091  0.49616450  0.35113960     0.25900
C209        C  0.17941672  0.53995357  0.34312844    -0.22100
C210        C  0.17356427  0.57083672  0.36673413     0.20800
F211        F  0.16720464  0.61358325  0.36011562    -0.12100
F212        F  0.16607444  0.58831742  0.41949708    -0.14400
F213        F  0.19304617  0.46546329  0.32923260    -0.14400
F214        F  0.18981402  0.44018207  0.38848091    -0.12100
C215        C  0.18210215  0.56892977  0.13040197     0.25900
C216        C  0.18313223  0.53750304  0.15394212    -0.22200
C217        C  0.18514898  0.49323440  0.14590313     0.20800
C218        C  0.18306317  0.48055317  0.11519698     0.25900
C219        C  0.17965557  0.51185521  0.09174646    -0.22100
C220        C  0.18058229  0.55624210  0.09964117     0.20800
F221        F  0.17749328  0.58744042  0.07775764    -0.12100
F222        F  0.18152297  0.61209943  0.13714713    -0.14400
F223        F  0.18350417  0.43739354  0.10847625    -0.14400
F224        F  0.18660342  0.46195968  0.16781180    -0.12100
C225        C  0.44284162  0.05891934  0.26205446     0.25900
C226        C  0.48874840  0.06703839  0.25739662    -0.22200
C227        C  0.51731140  0.03180860  0.25164713     0.20800
C228        C  0.50073892  0.98947816  0.25100777     0.25900
C229        C  0.45510093  0.98112373  0.25625233    -0.22100
C230        C  0.42618858  0.01635258  0.26144322     0.20800
F231        F  0.38198715  0.00972688  0.26641692    -0.12100
F232        F  0.41391612  0.09203500  0.26759214    -0.14400
F233        F  0.52974735  0.95665205  0.24487028    -0.14400
F234        F  0.56141530  0.03814430  0.24617138    -0.12100
C235        C  0.44068253  0.81703534  0.10951596     0.25900
C236        C  0.48589692  0.81350188  0.10139114    -0.22200
C237        C  0.51772906  0.81040091  0.12480028     0.20800
C238        C  0.50466067  0.81254920  0.15564621     0.25900
C239        C  0.45963427  0.81885972  0.16367578    -0.22100
C240        C  0.42773312  0.82011264  0.14022950     0.20800
F241        F  0.38381383  0.82530658  0.14691652    -0.12100
F242        F  0.40904211  0.82032692  0.08766283    -0.14400
F243        F  0.53637947  0.81067800  0.17752701    -0.14400
F244        F  0.56168463  0.80619897  0.11784798    -0.12100
C245        C  0.42255298  0.81709316  0.37471286     0.25900
C246        C  0.45470688  0.82095133  0.35116170    -0.22200
C247        C  0.49998214  0.82181436  0.35895108     0.20800
C248        C  0.51280417  0.82110574  0.38959989     0.25900
C249        C  0.48067207  0.81911375  0.41326452    -0.22100
C250        C  0.43544536  0.81576626  0.40545784     0.20800
F251        F  0.40350270  0.81341129  0.42756213    -0.12100
F252        F  0.37851502  0.81526601  0.36803043    -0.14400
F253        F  0.55689106  0.82315619  0.39609008    -0.14400
F254        F  0.53193752  0.82586245  0.33696832    -0.12100
C255        C  0.26203337  0.76556150  0.25417893     0.25900
C256        C  0.30770998  0.75575273  0.25136061    -0.22200
C257        C  0.32062761  0.71240692  0.24580939     0.20800
C258        C  0.28920906  0.67953753  0.24412998     0.25900
C259        C  0.24361622  0.68867549  0.24793650    -0.22100
C260        C  0.23011987  0.73219338  0.25238898     0.20800
F261        F  0.18634862  0.74238448  0.25563380    -0.12100
F262        F  0.24828588  0.80704624  0.25931688    -0.14400
F263        F  0.30405438  0.63842781  0.23880513    -0.14400
F264        F  0.36407812  0.70119893  0.24195183    -0.12100
O265        O  0.46625739  0.81720519  0.79648119    -0.55500
C266        C  0.44586817  0.82705373  0.69588504     0.77200
O267        O  0.33498265  0.83005058  0.75467717    -0.56600
C268        C  0.44116084  0.82748539  0.81893447     0.77900
C269        C  0.43900390  0.93564365  0.75687744     0.79500
Cd270      Cd  0.41594565  0.84631136  0.75714045     1.37500
O271        O  0.46897885  0.81528297  0.71869547    -0.55500
O272        O  0.46675568  0.90476568  0.75782922    -0.54300
C273        C  0.34277252  0.78925331  0.75425348     0.79500
O274        O  0.39792409  0.92523396  0.75650974    -0.56700
O275        O  0.41004312  0.84716099  0.70189630    -0.55100
O276        O  0.40430144  0.84518239  0.81249270    -0.55100
O277        O  0.38305894  0.77755721  0.75619208    -0.54300
O278        O  0.18861293  0.52951102  0.78844771    -0.55500
C279        C  0.17723444  0.55075631  0.68639658     0.77200
O280        O  0.07738705  0.59416075  0.74535304    -0.56600
C281        C  0.17422268  0.55275011  0.81053796     0.77100
C282        C  0.21171904  0.65202812  0.74808325     0.79500
Cd283      Cd  0.15725143  0.57722682  0.74816022     1.37500
O284        O  0.18876133  0.52690559  0.70880242    -0.55500
O285        O  0.22607564  0.61326754  0.74886131    -0.54300
C286        C  0.06593298  0.55435033  0.74754613     0.79500
O287        O  0.16964023  0.65705874  0.74763461    -0.56700
O288        O  0.15833572  0.58637218  0.69305415    -0.55100
O289        O  0.15347793  0.58713492  0.80337525    -0.55100
O290        O  0.09675191  0.52657204  0.75013441    -0.54300
O291        O  0.74533593  0.51892980  0.95329759    -0.55500
C292        C  0.75974226  0.53793621  0.55614910     0.77200
O293        O  0.86049622  0.57737019  0.99602721    -0.56600
C294        C  0.75907670  0.54461910  0.93231365     0.77100
C295        C  0.72740024  0.64057120  0.49498086     0.79500
Cd296      Cd  0.77963423  0.56290469  0.99465954     1.37500
O297        O  0.74735900  0.51342459  0.53430189    -0.55500
O298        O  0.71074353  0.60256325  0.99326102    -0.54300
C299        C  0.87209475  0.53761314  0.99401034     0.79500
O300        O  0.76948782  0.64311402  0.99737953    -0.56700
O301        O  0.77959798  0.57281761  0.54886150    -0.55100
O302        O  0.78129904  0.57741522  0.94085784    -0.55100
O303        O  0.84081592  0.51022392  0.49158108    -0.54300
O304        O  0.47468208  0.80808818  0.54682636    -0.55500
C305        C  0.49453226  0.82405492  0.94557812     0.77200
O306        O  0.54318411  0.91747599  0.50748828    -0.56600
C307        C  0.49993972  0.81825274  0.56893666     0.77100
C308        C  0.59938596  0.78023353  0.50093682     0.79500
Cd309      Cd  0.52501312  0.83809184  0.50696273     1.37500
O310        O  0.47161419  0.80989791  0.96814328    -0.55500
O311        O  0.55909073  0.76802278  0.50006925    -0.54300
C312        C  0.50259541  0.92940999  0.50941810     0.79500
O313        O  0.60640161  0.82066957  0.50540683    -0.56700
O314        O  0.53030706  0.84385445  0.95192584    -0.55100
O315        O  0.53722017  0.83503628  0.56195644    -0.55100
O316        O  0.47399490  0.89915469  0.51041448    -0.54300
O317        O  0.18080029  0.52239285  0.96028831    -0.55500
C318        C  0.17203679  0.49786501  0.55968818     0.77200
O319        O  0.07236274  0.44619917  0.99555040    -0.56600
C320        C  0.17108052  0.49893089  0.93733062     0.77100
C321        C  0.21443432  0.39572392  0.49820975     0.79500
Cd322      Cd  0.15316583  0.46829211  0.49853153     1.37500
O323        O  0.18237838  0.52129069  0.53669676    -0.55500
O324        O  0.22632455  0.43519642  0.99568204    -0.54300
C325        C  0.05837500  0.48519608  0.99806135     0.79500
O326        O  0.17277126  0.38890661  0.00107631    -0.56700
O327        O  0.15377913  0.46160371  0.55399221    -0.55100
O328        O  0.15428743  0.46194041  0.94304867    -0.55100
O329        O  0.08799607  0.51413027  0.50105387    -0.54300
O330        O  0.48070274  0.22894690  0.54631184    -0.55500
C331        C  0.45734728  0.21871738  0.94659632     0.77200
O332        O  0.40681165  0.12392302  0.50938552    -0.56600
C333        C  0.45525715  0.22129586  0.56908990     0.77100
C334        C  0.35218038  0.26256956  0.50311612     0.79500
Cd335      Cd  0.42649340  0.20347142  0.50778459     1.37500
O336        O  0.48033559  0.23165902  0.96916318    -0.55500
O337        O  0.39257000  0.27463913  0.50232836    -0.54300
C338        C  0.44731767  0.11148752  0.50876928     0.79500
O339        O  0.34531134  0.22189718  0.50673129    -0.56700
O340        O  0.42085073  0.19979549  0.95275655    -0.55100
O341        O  0.41621658  0.20835027  0.56318580    -0.55100
O342        O  0.47620066  0.14140456  0.50751270    -0.54300
O343        O  0.75879669  0.52721330  0.78171573    -0.55500
C344        C  0.76742651  0.49599838  0.68394824     0.77200
O345        O  0.87155106  0.45733105  0.74829630    -0.56600
C346        C  0.76541921  0.50299551  0.80479439     0.77100
C347        C  0.73952645  0.39630904  0.74567490     0.79500
Cd348      Cd  0.79117218  0.47381901  0.74511882     1.37500
O349        O  0.75685916  0.52103764  0.70600038    -0.55500
O350        O  0.72377401  0.43452149  0.74512915    -0.54300
C351        C  0.88334499  0.49669008  0.74415632     0.79500
O352        O  0.78178694  0.39295402  0.74643547    -0.56700
O353        O  0.78826920  0.46154852  0.69068090    -0.55100
O354        O  0.78335076  0.46641041  0.79984545    -0.55100
O355        O  0.85259315  0.52415783  0.74032333    -0.54300
O356        O  0.48755519  0.23020070  0.71782126    -0.55500
C357        C  0.51188670  0.21645118  0.81972073     0.77200
O358        O  0.54814066  0.12032239  0.75796108    -0.56600
C359        C  0.50989784  0.21417931  0.69561309     0.77100
C360        C  0.61082684  0.25633385  0.75338771     0.79500
Cd361      Cd  0.53663792  0.19921947  0.75753372     1.37500
O362        O  0.48839473  0.23065242  0.79776036    -0.55500
O363        O  0.57044566  0.26806509  0.75525529    -0.54300
C364        C  0.50648731  0.11200284  0.75787683     0.79500
O365        O  0.61849316  0.21552975  0.75472697    -0.56700
O366        O  0.54692310  0.19566871  0.81251051    -0.55100
O367        O  0.54405035  0.19216329  0.70256486    -0.55100
O368        O  0.48025981  0.14425948  0.75797978    -0.54300
C369        C  0.69144040  0.28174947  0.75475702     0.25900
C370        C  0.64594043  0.28994665  0.74944823    -0.22200
C371        C  0.63298455  0.33212288  0.74065488     0.20800
C372        C  0.66375420  0.36568248  0.73875117     0.25900
C373        C  0.70886266  0.35845949  0.74549178    -0.22100
C374        C  0.72274406  0.31586603  0.75277206     0.20800
F375        F  0.76619450  0.30741916  0.75871030    -0.12100
F376        F  0.70545265  0.24128448  0.76260910    -0.14400
F377        F  0.64878728  0.40559970  0.73027877    -0.14400
F378        F  0.59002134  0.34145221  0.73373220    -0.12100
C379        C  0.45401987  0.23461445  0.65537137     0.25900
C380        C  0.49689644  0.21992224  0.66309455    -0.22200
C381        C  0.52683210  0.20881009  0.63927006     0.20800
C382        C  0.51390823  0.21149257  0.60866471     0.25900
C383        C  0.47063536  0.22472111  0.60108237    -0.22100
C384        C  0.44093604  0.23661986  0.62470931     0.20800
F385        F  0.39895573  0.24981142  0.61813213    -0.12100
F386        F  0.42404952  0.24549440  0.67748976    -0.14400
F387        F  0.54296435  0.19853831  0.58650961    -0.14400
F388        F  0.56852666  0.19438675  0.64546829    -0.12100
C389        C  0.51740421  0.21974025  0.90645539     0.25900
C390        C  0.47222111  0.22392404  0.91447565    -0.22200
C391        C  0.44063591  0.22911025  0.89117871     0.20800
C392        C  0.45375549  0.22862871  0.86040728     0.25900
C393        C  0.49871026  0.22232741  0.85224553    -0.22100
C394        C  0.53051523  0.21857199  0.87564843     0.20800
F395        F  0.57431415  0.21289057  0.86877818    -0.12100
F396        F  0.54861620  0.21416475  0.92837573    -0.14400
F397        F  0.42202701  0.23203810  0.83862706    -0.14400
F398        F  0.39677264  0.23398936  0.89819601    -0.12100
C399        C  0.23845917  0.31804558  0.50886101     0.25900
C400        C  0.24830148  0.36017975  0.49787567    -0.22200
C401        C  0.29188838  0.36882232  0.98720898     0.20800
C402        C  0.32489518  0.33679063  0.98820587     0.25900
C403        C  0.31555946  0.29505356  0.50010731    -0.22100
C404        C  0.27171493  0.28581217  0.50988983     0.20800
F405        F  0.26123568  0.24599379  0.52136966    -0.12100
F406        F  0.19707581  0.30835907  0.51958875    -0.14400
F407        F  0.36609962  0.34681532  0.97721105    -0.14400
F408        F  0.30287472  0.40848327  0.97559578    -0.12100
C409        C  0.44289832  0.98731673  0.51028459     0.25900
C410        C  0.48855111  0.97602561  0.51011610    -0.22200
C411        C  0.52019169  0.00972406  0.01013988     0.20800
C412        C  0.50676353  0.05341777  0.00982970     0.25900
C413        C  0.46113797  0.06478169  0.50948455    -0.22100
C414        C  0.42944343  0.03104029  0.50982890     0.20800
F415        F  0.38522113  0.04016094  0.50949011    -0.12100
F416        F  0.41086783  0.95607523  0.51068644    -0.14400
F417        F  0.53886834  0.08458651  0.00983949    -0.14400
F418        F  0.56442643  0.00062269  0.01051040    -0.12100
C419        C  0.95276423  0.55315212  0.00398561     0.25900
C420        C  0.91959657  0.52370154  0.99485886    -0.22200
C421        C  0.93232388  0.48078288  0.48722288     0.20800
C422        C  0.97716791  0.46787968  0.48844317     0.25900
C423        C  0.01034097  0.49754096  0.99741913    -0.22100
C424        C  0.99736889  0.54035031  0.00519078     0.20800
F425        F  0.02783304  0.57024868  0.01429423    -0.12100
F426        F  0.94210736  0.59445242  0.01234123    -0.14400
F427        F  0.98805984  0.42655427  0.48030572    -0.14400
F428        F  0.90149455  0.45118290  0.47820097    -0.12100
C429        C  0.76434458  0.56845559  0.87749172     0.25900
C430        C  0.75188929  0.53652917  0.89925139    -0.22200
C431        C  0.73681199  0.49583006  0.88877396     0.20800
C432        C  0.73880678  0.48576585  0.85759069     0.25900
C433        C  0.75471037  0.51653952  0.83630662    -0.22100
C434        C  0.76557153  0.55852423  0.84631743     0.20800
F435        F  0.78093791  0.58888250  0.82623712    -0.12100
F436        F  0.77736091  0.60885007  0.88636027    -0.14400
F437        F  0.72651418  0.44537994  0.84822709    -0.14400
F438        F  0.72232908  0.46491260  0.90871020    -0.12100
C439        C  0.75564455  0.47310108  0.62967488     0.25900
C440        C  0.75771034  0.50653076  0.65170161    -0.22200
C441        C  0.75460191  0.55004947  0.64209740     0.20800
C442        C  0.75299479  0.56005319  0.61096068     0.25900
C443        C  0.75346531  0.52671011  0.58880296    -0.22100
C444        C  0.75317208  0.48309913  0.59851390     0.20800
F445        F  0.75362010  0.45011790  0.57785774    -0.12100
F446        F  0.75734257  0.43062095  0.63823852    -0.14400
F447        F  0.75259255  0.60259658  0.60245851    -0.14400
F448        F  0.75608259  0.58312901  0.66265444    -0.12100
C449        C  0.70719832  0.71692853  0.51116163     0.25900
C450        C  0.69807242  0.67922372  0.49402148    -0.22200
C451        C  0.65866961  0.67731563  0.47698376     0.20800
C452        C  0.62785190  0.71120514  0.47830410     0.25900
C453        C  0.63552370  0.74788870  0.49678521    -0.22100
C454        C  0.67607121  0.75108948  0.51254772     0.20800
F455        F  0.68442948  0.78597229  0.53065838    -0.12100
F456        F  0.74490828  0.71960519  0.52793549    -0.14400
F457        F  0.58994045  0.70772221  0.96167347    -0.14400
F458        F  0.64957250  0.64213156  0.95916528    -0.12100
C459        C  0.00601198  0.50203053  0.76243254     0.25900
C460        C  0.01910696  0.54021073  0.74693771    -0.22200
C461        C  0.98757271  0.56340159  0.72997243     0.20800
C462        C  0.94358023  0.54872675  0.72858256     0.25900
C463        C  0.93037159  0.51064120  0.74424894    -0.22100
C464        C  0.96203458  0.48741128  0.76111991     0.20800
F465        F  0.95014961  0.45137761  0.77724894    -0.12100
F466        F  0.03556455  0.47939014  0.77955602    -0.14400
F467        F  0.91412442  0.57137148  0.71139366    -0.14400
F468        F  0.99961334  0.59949829  0.71394490    -0.12100
C469        C  0.17323041  0.55791931  0.89749005     0.25900
C470        C  0.17762846  0.51373208  0.90529831    -0.22200
C471        C  0.18496413  0.48312774  0.88181375     0.20800
C472        C  0.18662133  0.49620016  0.85114642     0.25900
C473        C  0.17942494  0.53998496  0.84313323    -0.22100
C474        C  0.17354699  0.57086519  0.86673853     0.20800
F475        F  0.16716713  0.61360858  0.86011926    -0.12100
F476        F  0.16602720  0.58834143  0.91950090    -0.14400
F477        F  0.19310453  0.46550197  0.82924111    -0.14400
F478        F  0.18986449  0.44021984  0.88848788    -0.12100
C479        C  0.18214578  0.56892403  0.63039723     0.25900
C480        C  0.18314600  0.53749842  0.65393882    -0.22200
C481        C  0.18512365  0.49322762  0.64590196     0.20800
C482        C  0.18303169  0.48054542  0.61519626     0.25900
C483        C  0.17965592  0.51184785  0.59174346    -0.22100
C484        C  0.18061915  0.55623515  0.59963650     0.20800
F485        F  0.17756187  0.58743467  0.57775156    -0.12100
F486        F  0.18160365  0.61209464  0.63714080    -0.14400
F487        F  0.18343428  0.43738438  0.60847883    -0.14400
F488        F  0.18654370  0.46195352  0.66781227    -0.12100
C489        C  0.44283374  0.05894203  0.76204626     0.25900
C490        C  0.48874660  0.06705941  0.75741435    -0.22200
C491        C  0.51731837  0.03182488  0.75170100     0.20800
C492        C  0.50074796  0.98949375  0.75106486     0.25900
C493        C  0.45510128  0.98114194  0.75627470    -0.22100
C494        C  0.42618209  0.01637404  0.76143673     0.20800
F495        F  0.38197322  0.00975146  0.76637977    -0.12100
F496        F  0.41389988  0.09206060  0.76755348    -0.14400
F497        F  0.52976836  0.95666463  0.74496373    -0.14400
F498        F  0.56143129  0.03815533  0.74625831    -0.12100
C499        C  0.44072952  0.81703525  0.60950864     0.25900
C500        C  0.48594902  0.81352798  0.60139076    -0.22200
C501        C  0.51777547  0.81045276  0.62480523     0.20800
C502        C  0.50469590  0.81260105  0.65564891     0.25900
C503        C  0.45966315  0.81888516  0.66367113    -0.22100
C504        C  0.42776841  0.82011233  0.64022023     0.20800
F505        F  0.38384387  0.82528018  0.64690085    -0.12100
F506        F  0.40909368  0.82030067  0.58765052    -0.14400
F507        F  0.53640905  0.81075727  0.67753468    -0.14400
F508        F  0.56173611  0.80627725  0.61786044    -0.12100
C509        C  0.42249815  0.81709845  0.87470138     0.25900
C510        C  0.45466038  0.82094179  0.85115407    -0.22200
C511        C  0.49993374  0.82178055  0.85894881     0.20800
C512        C  0.51274782  0.82106268  0.88959880     0.25900
C513        C  0.48060889  0.81908648  0.91325962    -0.22100
C514        C  0.43538237  0.81576348  0.90544790     0.20800
F515        F  0.40343299  0.81342536  0.92754864    -0.12100
F516        F  0.37846089  0.81529501  0.86801385    -0.14400
F517        F  0.55683409  0.82308972  0.89609406    -0.14400
F518        F  0.53189730  0.82581331  0.83697018    -0.12100
C519        C  0.26204180  0.76556310  0.75421691     0.25900
C520        C  0.30771288  0.75576926  0.75133116    -0.22200
C521        C  0.32062667  0.71243996  0.74571173     0.20800
C522        C  0.28920996  0.67956770  0.74403620     0.25900
C523        C  0.24362560  0.68868904  0.74791197    -0.22100
C524        C  0.23013073  0.73219406  0.75242803     0.20800
F525        F  0.18636577  0.74236775  0.75574410    -0.12100
F526        F  0.24830038  0.80703152  0.75942810    -0.14400
F527        F  0.30404649  0.63847160  0.73864653    -0.14400
F528        F  0.36407076  0.70125433  0.74178328    -0.12100
loop_ 
_geom_bond_atom_site_label_1 
_geom_bond_atom_site_label_2 
_geom_bond_distance 
_geom_bond_site_symmetry_2 
_ccdc_geom_bond_type 
O1            C4   1.273       .  A
O1           Cd6   2.468       .  S
C2           O11   1.266       .  A
C2            O7   1.273       .  A
C2          C239   1.487       .  S
O3            C9   1.275       .  A
O3           Cd6   2.485       .  S
C4           O12   1.267       .  A
C4          C246   1.484       .  S
C5           O10   1.274       .  A
C5            O8   1.264       .  A
C5          C229   1.478       .  S
Cd6          O13   2.330       .  S
Cd6          O12   2.444       .  S
Cd6          O11   2.425       .  S
Cd6           O7   2.496       .  S
Cd6          O10   2.484       .  S
Cd6           O8   2.355       .  S
C9           O13   1.266       .  A
C9          C256   1.477       .  S
O14          C17   1.274       .  A
O14         Cd19   2.484       .  S
C15          O24   1.265       .  A
C15          O20   1.274       .  A
C15         C216   1.487       .  S
O16          C22   1.273       .  A
O16         Cd19   2.458       .  S
C17          O25   1.267       .  A
C17         C209   1.488       .  S
C18          O23   1.273       .  A
C18          O21   1.267       .  A
C18         C259   1.478       .  S
Cd19         O26   2.391       .  S
Cd19         O25   2.436       .  S
Cd19         O24   2.427       .  S
Cd19         O20   2.495       .  S
Cd19         O23   2.479       .  S
Cd19         O21   2.344       .  S
C22          O26   1.265       .  A
C22         C196   1.472       .  S
O27          C30   1.276       .  A
O27         Cd32   2.488       .  S
C28          O37   1.265       .  A
C28          O33   1.275       .  A
C28         C179   1.480       .  S
O29          C35   1.273       .  A
O29         Cd32   2.469       .  S
C30          O38   1.266       .  A
C30         C166   1.485       .  S
C31         O300   1.274       .  A
C31         O298   1.268       .  A
C31         C186   1.479       .  S
Cd32         O38   2.395       .  S
Cd32         O36   2.485       .  S
Cd32         O34   2.403       .  S
Cd32        O303   2.453       .  S
Cd32        O301   2.391       .  S
Cd32        O297   2.495       .  S
O33        Cd296   2.495   1_554  S
O34         C295   1.268       .  A
C35         O303   1.267       .  A
C35         C156   1.490       .  S
O36         C295   1.274       .  A
O37        Cd296   2.391   1_554  S
O39         C299   1.267       .  A
O39        Cd296   2.453       .  S
O40          C43   1.273       .  A
O40         Cd45   2.474       .  S
C41          O50   1.267       .  A
C41          O46   1.274       .  A
C41         C249   1.486       .  S
O42          C48   1.275       .  A
O42         Cd45   2.498       .  S
C43          O51   1.267       .  A
C43         C236   1.484       .  S
C44          O49   1.275       .  A
C44          O47   1.267       .  A
C44         C189   1.482   1_554  S
Cd45         O52   2.426       .  S
Cd45         O51   2.439       .  S
Cd45         O49   2.503       .  S
Cd45         O47   2.401       .  S
Cd45        O314   2.418   1_554  S
Cd45        O310   2.499   1_554  S
O46        Cd309   2.499       .  S
C48          O52   1.265       .  A
C48         C146   1.493       .  S
O50        Cd309   2.418       .  S
O53          C56   1.272       .  A
O53        Cd322   2.493       .  S
C54          O63   1.266       .  A
C54          O59   1.272       .  A
C54         C219   1.487       .  S
O55          C61   1.274       .  A
O55        Cd322   2.523       .  S
C56          O64   1.266       .  A
C56         C206   1.484       .  S
C57         O326   1.274   1_556  A
C57         O324   1.267       .  A
C57         C136   1.492       .  S
Cd58         O65   2.413   1_556  S
Cd58         O63   2.435   1_556  S
Cd58         O59   2.496   1_556  S
Cd58        O317   2.493       .  S
Cd58        O319   2.523       .  S
Cd58        O328   2.435       .  S
Cd58        O326   2.511   1_556  S
Cd58        O324   2.423       .  S
O60         C321   1.267       .  A
O60        Cd322   2.423       .  S
C61         O329   1.264       .  A
C61         C159   1.492       .  S
O62         C321   1.274       .  A
O62        Cd322   2.511       .  S
O64        Cd322   2.435       .  S
O65         C325   1.264   1_554  A
O66          C69   1.272       .  A
O66         Cd71   2.480       .  S
C67          O76   1.267       .  A
C67          O72   1.273       .  A
C67         C126   1.479       .  S
O68          C74   1.275       .  A
O68         Cd71   2.513       .  S
C69          O77   1.266       .  A
C69         C119   1.482       .  S
C70          O75   1.275       .  A
C70          O73   1.268       .  A
C70         C139   1.492       .  S
Cd71         O78   2.422       .  S
Cd71         O77   2.445       .  S
Cd71         O75   2.504       .  S
Cd71         O73   2.425       .  S
Cd71        O340   2.417   1_554  S
Cd71        O336   2.482   1_554  S
O72        Cd335   2.482       .  S
C74          O78   1.264       .  A
C74         C149   1.494       .  S
O76        Cd335   2.417       .  S
O79          C82   1.271       .  A
O79         Cd84   2.485       .  S
C80          O89   1.266       .  A
C80          O85   1.272       .  A
C80         C176   1.479       .  S
O81          C87   1.271       .  A
O81         Cd84   2.472       .  S
C82          O90   1.264       .  A
C82         C169   1.473       .  S
C83          O88   1.274       .  A
C83          O86   1.266       .  A
C83         C109   1.482       .  S
Cd84         O91   2.413       .  S
Cd84         O90   2.414       .  S
Cd84         O89   2.414       .  S
Cd84         O85   2.475       .  S
Cd84         O88   2.499       .  S
Cd84         O86   2.355       .  S
C87          O91   1.263       .  A
C87         C199   1.475       .  S
O92          C95   1.275       .  A
O92         Cd97   2.479       .  S
C93         O102   1.268       .  A
C93          O98   1.274       .  A
C93         C129   1.485       .  S
O94         C100   1.276       .  A
O94         Cd97   2.448       .  S
C95         O103   1.268       .  A
C95         C116   1.489       .  S
C96         O101   1.276       .  A
C96          O99   1.267       .  A
C96         C106   1.484       .  S
Cd97        O104   2.389       .  S
Cd97        O103   2.423       .  S
Cd97        O102   2.430       .  S
Cd97         O98   2.467       .  S
Cd97        O101   2.510       .  S
Cd97         O99   2.346       .  S
C100        O104   1.266       .  A
C100        C226   1.479       .  S
C105        C106   1.411       .  A
C105        C110   1.409       .  A
C105        F112   1.357       .  S
C106        C107   1.407       .  A
C107        C108   1.385       .  A
C107        F114   1.359       .  S
C108        C109   1.407       .  A
C108        F113   1.358       .  S
C109        C110   1.410       .  A
C110        F111   1.358       .  S
C115        C116   1.409       .  A
C115        C120   1.403       .  A
C115        F122   1.357       .  S
C116        C117   1.412       .  A
C117        C118   1.400       .  A
C117        F124   1.358       .  S
C118        C119   1.404       .  A
C118        F123   1.358       .  S
C119        C120   1.408       .  A
C120        F121   1.358       .  S
C125        C126   1.404       .  A
C125        C130   1.401       .  A
C125        F132   1.358       .  S
C126        C127   1.408       .  A
C127        C128   1.399       .  A
C127        F134   1.358       .  S
C128        C129   1.407       .  A
C128        F133   1.358       .  S
C129        C130   1.411       .  A
C130        F131   1.358       .  S
C135        C136   1.410   1_554  A
C135        C140   1.408       .  A
C135        F142   1.357       .  S
C136        C401   1.410       .  A
C137        C138   1.398       .  A
C137        C400   1.410       .  A
C137        F144   1.359       .  S
C138        C403   1.410       .  A
C138        F143   1.358       .  S
C139        C140   1.409       .  A
C139        C402   1.410   1_554  A
C140        F141   1.357       .  S
C145        C146   1.414       .  A
C145        C150   1.403   1_565  A
C145        F152   1.358       .  S
C146        C411   1.406   1_565  A
C147        C148   1.401       .  A
C147        C410   1.406   1_545  A
C147        F154   1.358       .  S
C148        C413   1.415       .  A
C148        F153   1.358       .  S
C149        C150   1.406       .  A
C149        C412   1.415       .  A
C150        F151   1.358       .  S
C155        C156   1.405       .  A
C155        C160   1.398       .  A
C155        F162   1.358       .  S
C156        C421   1.413       .  A
C157        C158   1.405       .  A
C157        C420   1.413       .  A
C157        F164   1.358       .  S
C158        C423   1.408   1_655  A
C158        F163   1.358       .  S
C159        C160   1.412   1_455  A
C159        C422   1.408   1_455  A
C160        F161   1.358   1_655  S
C165        C166   1.414       .  A
C165        C170   1.398       .  A
C165        F172   1.358       .  S
C166        C167   1.407       .  A
C167        C168   1.400       .  A
C167        F174   1.357       .  S
C168        C169   1.406       .  A
C168        F173   1.358       .  S
C169        C170   1.401       .  A
C170        F171   1.358       .  S
C175        C176   1.410       .  A
C175        C180   1.400       .  A
C175        F182   1.358       .  S
C176        C177   1.404       .  A
C177        C178   1.398       .  A
C177        F184   1.358       .  S
C178        C179   1.410       .  A
C178        F183   1.358       .  S
C179        C180   1.405       .  A
C180        F181   1.358       .  S
C185        C186   1.408   1_554  A
C185        C190   1.407       .  A
C185        F192   1.357       .  S
C186        C187   1.405       .  A
C187        C188   1.394       .  A
C187        F458   1.359       .  S
C188        C189   1.407       .  A
C188        F457   1.358       .  S
C189        C190   1.408   1_556  A
C190        F191   1.357       .  S
F193        C452   1.358       .  S
F194        C451   1.359       .  S
C195        C196   1.408       .  A
C195        C200   1.396   1_455  A
C195        F202   1.358       .  S
C196        C197   1.403   1_455  A
C197        C198   1.397       .  A
C197        F204   1.358       .  S
C198        C199   1.410       .  A
C198        F203   1.358       .  S
C199        C200   1.404       .  A
C200        F201   1.358       .  S
C205        C206   1.406       .  A
C205        C210   1.403       .  A
C205        F212   1.358       .  S
C206        C207   1.409       .  A
C207        C208   1.401       .  A
C207        F214   1.358       .  S
C208        C209   1.407       .  A
C208        F213   1.357       .  S
C209        C210   1.412       .  A
C210        F211   1.358       .  S
C215        C216   1.412       .  A
C215        C220   1.402       .  A
C215        F222   1.358       .  S
C216        C217   1.405       .  A
C217        C218   1.401       .  A
C217        F224   1.358       .  S
C218        C219   1.410       .  A
C218        F223   1.358       .  S
C219        C220   1.406       .  A
C220        F221   1.358       .  S
C225        C226   1.413       .  A
C225        C230   1.399       .  A
C225        F232   1.358       .  S
C226        C227   1.403       .  A
C227        C228   1.392   1_545  A
C227        F234   1.357       .  S
C228        C229   1.411       .  A
C228        F233   1.358       .  S
C229        C230   1.405   1_565  A
C230        F231   1.358       .  S
C235        C236   1.405       .  A
C235        C240   1.399       .  A
C235        F242   1.358       .  S
C236        C237   1.411       .  A
C237        C238   1.404       .  A
C237        F244   1.358       .  S
C238        C239   1.407       .  A
C238        F243   1.358       .  S
C239        C240   1.410       .  A
C240        F241   1.358       .  S
C245        C246   1.410       .  A
C245        C250   1.404       .  A
C245        F252   1.358       .  S
C246        C247   1.405       .  A
C247        C248   1.399       .  A
C247        F254   1.358       .  S
C248        C249   1.410       .  A
C248        F253   1.358       .  S
C249        C250   1.407       .  A
C250        F251   1.358       .  S
C255        C256   1.409       .  A
C255        C260   1.405       .  A
C255        F262   1.358       .  S
C256        C257   1.407       .  A
C257        C258   1.383       .  A
C257        F264   1.359       .  S
C258        C259   1.406       .  A
C258        F263   1.359       .  S
C259        C260   1.410       .  A
C260        F261   1.358       .  S
O265        C268   1.273       .  A
O265       Cd270   2.468       .  S
C266        O275   1.266       .  A
C266        O271   1.273       .  A
C266        C503   1.487       .  S
O267        C273   1.275       .  A
O267       Cd270   2.485       .  S
C268        O276   1.267       .  A
C268        C510   1.484       .  S
C269        O274   1.274       .  A
C269        O272   1.264       .  A
C269        C493   1.478       .  S
Cd270       O277   2.330       .  S
Cd270       O276   2.444       .  S
Cd270       O275   2.425       .  S
Cd270       O271   2.496       .  S
Cd270       O274   2.484       .  S
Cd270       O272   2.355       .  S
C273        O277   1.266       .  A
C273        C520   1.477       .  S
O278        C281   1.274       .  A
O278       Cd283   2.484       .  S
C279        O288   1.265       .  A
C279        O284   1.274       .  A
C279        C480   1.487       .  S
O280        C286   1.273       .  A
O280       Cd283   2.458       .  S
C281        O289   1.267       .  A
C281        C473   1.488       .  S
C282        O287   1.273       .  A
C282        O285   1.267       .  A
C282        C523   1.477       .  S
Cd283       O290   2.391       .  S
Cd283       O289   2.437       .  S
Cd283       O288   2.427       .  S
Cd283       O284   2.495       .  S
Cd283       O287   2.479       .  S
Cd283       O285   2.344       .  S
C286        O290   1.265       .  A
C286        C460   1.472       .  S
O291        C294   1.276       .  A
O291       Cd296   2.488       .  S
C292        O301   1.265       .  A
C292        O297   1.275       .  A
C292        C443   1.480       .  S
O293        C299   1.273       .  A
O293       Cd296   2.469       .  S
C294        O302   1.266       .  A
C294        C430   1.485       .  S
C295        C450   1.479       .  S
Cd296       O302   2.396       .  S
Cd296       O300   2.485       .  S
Cd296       O298   2.403       .  S
C299        C420   1.490       .  S
O304        C307   1.273       .  A
O304       Cd309   2.474       .  S
C305        O314   1.267       .  A
C305        O310   1.274       .  A
C305        C513   1.486       .  S
O306        C312   1.275       .  A
O306       Cd309   2.498       .  S
C307        O315   1.267       .  A
C307        C500   1.484       .  S
C308        O313   1.275       .  A
C308        O311   1.267       .  A
C308        C453   1.482       .  S
Cd309       O316   2.426       .  S
Cd309       O315   2.439       .  S
Cd309       O313   2.503       .  S
Cd309       O311   2.401       .  S
C312        O316   1.265       .  A
C312        C410   1.493       .  S
O317        C320   1.272       .  A
C318        O327   1.266       .  A
C318        O323   1.272       .  A
C318        C483   1.487       .  S
O319        C325   1.274       .  A
C320        O328   1.266       .  A
C320        C470   1.484       .  S
C321        C400   1.492       .  S
Cd322       O329   2.413       .  S
Cd322       O327   2.435       .  S
Cd322       O323   2.497       .  S
C325        C423   1.492       .  S
O330        C333   1.272       .  A
O330       Cd335   2.480       .  S
C331        O340   1.267       .  A
C331        O336   1.273       .  A
C331        C390   1.479       .  S
O332        C338   1.275       .  A
O332       Cd335   2.513       .  S
C333        O341   1.266       .  A
C333        C383   1.482       .  S
C334        O339   1.275       .  A
C334        O337   1.268       .  A
C334        C403   1.492       .  S
Cd335       O342   2.422       .  S
Cd335       O341   2.445       .  S
Cd335       O339   2.504       .  S
Cd335       O337   2.424       .  S
C338        O342   1.264       .  A
C338        C413   1.494       .  S
O343        C346   1.271       .  A
O343       Cd348   2.485       .  S
C344        O353   1.266       .  A
C344        O349   1.272       .  A
C344        C440   1.479       .  S
O345        C351   1.271       .  A
O345       Cd348   2.472       .  S
C346        O354   1.264       .  A
C346        C433   1.473       .  S
C347        O352   1.274       .  A
C347        O350   1.266       .  A
C347        C373   1.482       .  S
Cd348       O355   2.413       .  S
Cd348       O354   2.414       .  S
Cd348       O353   2.414       .  S
Cd348       O349   2.475       .  S
Cd348       O352   2.499       .  S
Cd348       O350   2.355       .  S
C351        O355   1.263       .  A
C351        C463   1.475       .  S
O356        C359   1.275       .  A
O356       Cd361   2.479       .  S
C357        O366   1.268       .  A
C357        O362   1.274       .  A
C357        C393   1.485       .  S
O358        C364   1.276       .  A
O358       Cd361   2.447       .  S
C359        O367   1.268       .  A
C359        C380   1.489       .  S
C360        O365   1.276       .  A
C360        O363   1.267       .  A
C360        C370   1.484       .  S
Cd361       O368   2.389       .  S
Cd361       O367   2.423       .  S
Cd361       O366   2.430       .  S
Cd361       O362   2.467       .  S
Cd361       O365   2.510       .  S
Cd361       O363   2.346       .  S
C364        O368   1.266       .  A
C364        C490   1.479       .  S
C369        C370   1.411       .  A
C369        C374   1.409       .  A
C369        F376   1.357       .  S
C370        C371   1.407       .  A
C371        C372   1.385       .  A
C371        F378   1.359       .  S
C372        C373   1.407       .  A
C372        F377   1.358       .  S
C373        C374   1.410       .  A
C374        F375   1.358       .  S
C379        C380   1.409       .  A
C379        C384   1.403       .  A
C379        F386   1.358       .  S
C380        C381   1.412       .  A
C381        C382   1.400       .  A
C381        F388   1.358       .  S
C382        C383   1.404       .  A
C382        F387   1.358       .  S
C383        C384   1.408       .  A
C384        F385   1.358       .  S
C389        C390   1.404       .  A
C389        C394   1.401       .  A
C389        F396   1.358       .  S
C390        C391   1.408       .  A
C391        C392   1.399       .  A
C391        F398   1.358       .  S
C392        C393   1.407       .  A
C392        F397   1.358       .  S
C393        C394   1.411       .  A
C394        F395   1.358       .  S
C399        C400   1.410       .  A
C399        C404   1.408       .  A
C399        F406   1.357       .  S
C401        C402   1.398       .  A
C401        F408   1.359       .  S
C402        F407   1.358       .  S
C403        C404   1.409       .  A
C404        F405   1.357       .  S
C409        C410   1.414       .  A
C409        C414   1.403   1_565  A
C409        F416   1.358       .  S
C411        C412   1.401       .  A
C411        F418   1.358       .  S
C412        F417   1.358       .  S
C413        C414   1.406       .  A
C414        F415   1.358       .  S
C419        C420   1.405   1_554  A
C419        C424   1.398       .  A
C419        F426   1.358       .  S
C421        C422   1.405       .  A
C421        F428   1.358       .  S
C422        F427   1.358       .  S
C423        C424   1.412   1_456  A
C424        F425   1.358   1_655  S
C429        C430   1.414       .  A
C429        C434   1.398       .  A
C429        F436   1.358       .  S
C430        C431   1.407       .  A
C431        C432   1.400       .  A
C431        F438   1.357       .  S
C432        C433   1.406       .  A
C432        F437   1.358       .  S
C433        C434   1.401       .  A
C434        F435   1.358       .  S
C439        C440   1.410       .  A
C439        C444   1.400       .  A
C439        F446   1.358       .  S
C440        C441   1.404       .  A
C441        C442   1.398       .  A
C441        F448   1.358       .  S
C442        C443   1.410       .  A
C442        F447   1.358       .  S
C443        C444   1.405       .  A
C444        F445   1.358       .  S
C449        C450   1.408       .  A
C449        C454   1.407       .  A
C449        F456   1.357       .  S
C450        C451   1.405       .  A
C451        C452   1.394       .  A
C452        C453   1.407       .  A
C453        C454   1.408       .  A
C454        F455   1.357       .  S
C459        C460   1.408       .  A
C459        C464   1.396   1_455  A
C459        F466   1.358       .  S
C460        C461   1.403   1_455  A
C461        C462   1.397       .  A
C461        F468   1.358       .  S
C462        C463   1.410       .  A
C462        F467   1.358       .  S
C463        C464   1.404       .  A
C464        F465   1.358       .  S
C469        C470   1.406       .  A
C469        C474   1.403       .  A
C469        F476   1.358       .  S
C470        C471   1.409       .  A
C471        C472   1.401       .  A
C471        F478   1.358       .  S
C472        C473   1.407       .  A
C472        F477   1.357       .  S
C473        C474   1.412       .  A
C474        F475   1.358       .  S
C479        C480   1.412       .  A
C479        C484   1.402       .  A
C479        F486   1.358       .  S
C480        C481   1.405       .  A
C481        C482   1.401       .  A
C481        F488   1.358       .  S
C482        C483   1.410       .  A
C482        F487   1.358       .  S
C483        C484   1.407       .  A
C484        F485   1.358       .  S
C489        C490   1.414       .  A
C489        C494   1.399       .  A
C489        F496   1.358       .  S
C490        C491   1.403       .  A
C491        C492   1.392   1_545  A
C491        F498   1.357       .  S
C492        C493   1.411       .  A
C492        F497   1.358       .  S
C493        C494   1.405   1_565  A
C494        F495   1.358       .  S
C499        C500   1.405       .  A
C499        C504   1.399       .  A
C499        F506   1.358       .  S
C500        C501   1.411       .  A
C501        C502   1.404       .  A
C501        F508   1.358       .  S
C502        C503   1.407       .  A
C502        F507   1.358       .  S
C503        C504   1.410       .  A
C504        F505   1.358       .  S
C509        C510   1.410       .  A
C509        C514   1.404       .  A
C509        F516   1.358       .  S
C510        C511   1.405       .  A
C511        C512   1.399       .  A
C511        F518   1.358       .  S
C512        C513   1.410       .  A
C512        F517   1.358       .  S
C513        C514   1.407       .  A
C514        F515   1.358       .  S
C519        C520   1.409       .  A
C519        C524   1.405       .  A
C519        F526   1.358       .  S
C520        C521   1.407       .  A
C521        C522   1.383       .  A
C521        F528   1.359       .  S
C522        C523   1.406       .  A
C522        F527   1.359       .  S
C523        C524   1.410       .  A
C524        F525   1.358       .  S
