geometry optimzed in LAMMPS
_audit_creation_date              2020-12-01 
_audit_creation_method            'lammps2cif' 
_symmetry_space_group_name_H-M    'P1' 
_symmetry_Int_Tables_number       1 
_symmetry_cell_setting            triclinic 
loop_ 
_symmetry_equiv_pos_as_xyz 
  x,y,z 
_cell_length_a                    88.18688752 
_cell_length_b                    88.25465189313427 
_cell_length_c                    40.035379263065984 
_cell_angle_alpha                 89.97857416094817 
_cell_angle_beta                  89.9496846575965 
_cell_angle_gamma                 89.89760578045497 
loop_ 
_atom_site_label 
_atom_site_type_symbol 
_atom_site_fract_x 
_atom_site_fract_y 
_atom_site_fract_z 
_atom_site_charge 
O1          O  0.29848562  0.31766771  0.08761172    -0.57500
C2          C  0.32516053  0.28930105  0.14289962     0.75100
O3          O  0.31779385  0.29148109  0.05366954    -0.58700
C4          C  0.29920489  0.32526115  0.06081507     0.75100
C5          C  0.34500249  0.33507703  0.11450307     0.77500
Cd6        Cd  0.32544245  0.31143358  0.09043329     1.37500
O7          O  0.31420926  0.29849824  0.13949374    -0.57500
O8          O  0.33245497  0.33195673  0.12818258    -0.56300
C9          C  0.33060390  0.28883799  0.04080933     0.77400
O10         O  0.34822290  0.32766404  0.08829446    -0.58700
O11         O  0.33638275  0.29131362  0.12376489    -0.57200
O12         O  0.31239203  0.32740005  0.04910406    -0.57200
O13         O  0.34135300  0.29759904  0.04916984    -0.56300
O14         O  0.43880738  0.45554163  0.24825061    -0.57500
C15         C  0.46619716  0.42562682  0.19855552     0.75100
O16         O  0.45156364  0.41049685  0.28791902    -0.58700
C17         C  0.42849700  0.45537494  0.27029877     0.75100
C18         C  0.41860182  0.40960656  0.21467227     0.77500
Cd19       Cd  0.44154316  0.42802776  0.24467269     1.37500
O20         O  0.45829774  0.43764301  0.19983683    -0.57500
O21         O  0.42409592  0.42088783  0.19928890    -0.56300
C22         C  0.45958038  0.42066781  0.30156631     0.77400
O23         O  0.42290788  0.40772974  0.24456784    -0.58700
O24         O  0.46223430  0.41497232  0.21770997    -0.57200
O25         O  0.42313265  0.44247352  0.27756395    -0.57200
O26         O  0.45822096  0.43396053  0.29035990    -0.56300
O27         O  0.07197973  0.44791326  0.17539905    -0.57500
C28         C  0.04843183  0.41912687  0.21695016     0.75100
O29         O  0.07725826  0.41740047  0.11745929    -0.58700
C30         C  0.08398423  0.45094449  0.15946145     0.75100
C31         C  0.09793054  0.40325021  0.21646013     0.77500
Cd32       Cd  0.07599210  0.42038525  0.17884806     1.37500
O33         O  0.05796796  0.42965751  0.22172898    -0.57500
O34         O  0.09253733  0.41569935  0.22652557    -0.56300
C35         C  0.06477089  0.41039237  0.11557289     0.77400
O36         O  0.09360246  0.39885930  0.18797413    -0.58700
O37         O  0.05203486  0.40918599  0.19568915    -0.57200
O38         O  0.09280546  0.43984844  0.15428493    -0.57200
O39         O  0.05865031  0.40672227  0.14289311    -0.56300
O40         O  0.20379886  0.31244166  0.39519774    -0.57500
C41         C  0.17088997  0.28681746  0.35124405     0.75100
O42         O  0.16013344  0.30612979  0.44559663    -0.58700
C43         C  0.20483153  0.32259850  0.41748385     0.75100
C44         C  0.15987863  0.33553336  0.36413870     0.77500
Cd45       Cd  0.17606074  0.31151652  0.39580592     1.37500
O46         O  0.18282535  0.29471977  0.34909485    -0.57500
O47         O  0.17286391  0.33146241  0.35409643    -0.56300
C48         C  0.16946948  0.29643807  0.45683911     0.77400
O49         O  0.15466941  0.32898291  0.38983707    -0.58700
O50         O  0.16145349  0.29065570  0.37342507    -0.57200
O51         O  0.19250413  0.32836377  0.42767271    -0.57200
O52         O  0.18142041  0.29417077  0.44016455    -0.56300
O53         O  0.44198214  0.53755398  0.45963760    -0.57500
C54         C  0.46904006  0.56299580  0.02232990     0.75100
O55         O  0.46672753  0.57590459  0.41716481    -0.58700
C56         C  0.43685162  0.53922983  0.43022406     0.75100
C57         C  0.42621210  0.58052176  0.97648535     0.77500
Cd58       Cd  0.45199023  0.56384781  0.46316343     1.37500
O59         O  0.46323495  0.55035179  0.01429133    -0.57500
O60         O  0.42798472  0.56811300  0.99196314    -0.56300
C61         C  0.47780521  0.56679321  0.42051161     0.77400
O62         O  0.43710275  0.58736937  0.45809538    -0.58700
O63         O  0.46517737  0.57427291  0.00473521    -0.57200
O64         O  0.43848455  0.55217368  0.41717641    -0.57200
O65         O  0.47660894  0.55678833  0.44289454    -0.56300
O66         O  0.29656566  0.66197239  0.07950064    -0.57500
C67         C  0.31851224  0.68896057  0.00380688     0.75100
O68         O  0.33459796  0.69221074  0.10250524    -0.58700
C69         C  0.29934645  0.66121599  0.11057976     0.75100
C70         C  0.34271550  0.65078126  0.04868294     0.77500
Cd71       Cd  0.32134145  0.67374919  0.06603422     1.37500
O72         O  0.30712736  0.68224518  0.01642734    -0.57500
O73         O  0.32930759  0.65084900  0.03740138    -0.56300
C74         C  0.32390268  0.70185757  0.10055963     0.77400
O75         O  0.34599675  0.66080072  0.07022834    -0.58700
O76         O  0.33108094  0.68739943  0.01864723    -0.57200
O77         O  0.31256006  0.66487091  0.11979224    -0.57200
O78         O  0.31280247  0.69849279  0.08210537    -0.56300
O79         O  0.07825347  0.54767788  0.50775772    -0.57500
C80         C  0.04992362  0.57776194  0.47116430     0.75100
O81         O  0.06859079  0.59327462  0.55522231    -0.58700
C82         C  0.08751603  0.54609548  0.53169953     0.75100
C83         C  0.10083072  0.59107552  0.47521814     0.77500
Cd84       Cd  0.07691938  0.57521852  0.51072392     1.37500
O85         O  0.05828262  0.56610503  0.46954545    -0.57500
O86         O  0.09398639  0.57982331  0.46287536    -0.56300
C87         C  0.06034838  0.58348529  0.06845653     0.77400
O88         O  0.09719445  0.59458847  0.50487015    -0.58700
O89         O  0.05447468  0.58835069  0.48984464    -0.57200
O90         O  0.09133488  0.56059991  0.04315936    -0.57200
O91         O  0.06311457  0.56967989  0.56149726    -0.56300
O92         O  0.22005863  0.66829562  0.30840689    -0.57500
C93         C  0.19774571  0.69871725  0.37882999     0.75100
O94         O  0.17987069  0.69595278  0.28590122    -0.58700
C95         C  0.21620957  0.66440344  0.27904449     0.75100
C96         C  0.17552159  0.65674463  0.35039319     0.77500
Cd97       Cd  0.19518326  0.67921487  0.32261029     1.37500
O98         O  0.20946357  0.69191330  0.36788460    -0.57500
O99         O  0.18939921  0.65742424  0.35853953    -0.56300
C100        C  0.19098029  0.70483282  0.28074395     0.77400
O101        O  0.17118545  0.66554475  0.32716656    -0.58700
O102        O  0.18524536  0.69567289  0.36500210    -0.57200
O103        O  0.20239453  0.66627725  0.27134984    -0.57200
O104        O  0.20348015  0.70146544  0.29424658    -0.56300
O105        O  0.59428874  0.53234763  0.20491280    -0.57500
C106        C  0.56815413  0.55904099  0.27018796     0.75100
O107        O  0.60116949  0.58278662  0.21187272    -0.58700
C108        C  0.59884631  0.53379350  0.17501296     0.75100
C109        C  0.56141040  0.56553864  0.16799038     0.77500
Cd110      Cd  0.58647127  0.55909847  0.21103229     1.37500
O111        O  0.57348687  0.54671442  0.25869307    -0.57500
O112        O  0.56103069  0.55594848  0.19135696    -0.56300
C113        C  0.61060852  0.57831303  0.23364016     0.77400
O114        O  0.57374196  0.57273647  0.16400643    -0.58700
O115        O  0.57195576  0.57106819  0.25519602    -0.57200
O116        O  0.59856927  0.54704263  0.16298269    -0.57200
O117        O  0.60934622  0.56469171  0.24320947    -0.56300
O118        O  0.69589862  0.69705385  0.32965157    -0.57500
C119        C  0.71558186  0.66982745  0.40601994     0.75100
O120        O  0.67285866  0.69386404  0.42605250    -0.58700
C121        C  0.68383783  0.70492203  0.32879236     0.75100
C122        C  0.67104901  0.65787193  0.35360965     0.77500
Cd123      Cd  0.68817373  0.68268634  0.38015095     1.37500
O124        O  0.71565366  0.67811541  0.38007913    -0.57500
O125        O  0.68333836  0.66247870  0.34089060    -0.56300
C126        C  0.68352998  0.70260016  0.43514052     0.77400
O127        O  0.66679558  0.66441721  0.38025396    -0.58700
O128        O  0.70269838  0.66672216  0.41821295    -0.57200
O129        O  0.67430626  0.70246411  0.35169643    -0.57200
O130        O  0.69589182  0.70164240  0.41931439    -0.56300
O131        O  0.70712699  0.30205617  0.38700398    -0.57500
C132        C  0.72749293  0.33040482  0.31236390     0.75100
O133        O  0.68971893  0.30470546  0.28418944    -0.58700
C134        C  0.69432224  0.29554228  0.38928395     0.75100
C135        C  0.68071491  0.34006177  0.35731750     0.77500
Cd136      Cd  0.70044053  0.31614513  0.33595835     1.37500
O137        O  0.72778393  0.32208640  0.33823899    -0.57500
O138        O  0.69277694  0.33668076  0.37277542    -0.56300
C139        C  0.69839713  0.29321832  0.28587690     0.77400
O140        O  0.67801262  0.33259514  0.33085401    -0.58700
O141        O  0.71463428  0.33280832  0.29939567    -0.57200
O142        O  0.68446064  0.29919621  0.36778150    -0.57200
O143        O  0.70802205  0.29300987  0.30920181    -0.56300
O144        O  0.55802659  0.43204305  0.45202049    -0.57500
C145        C  0.59134343  0.44689446  0.51937919     0.75100
O146        O  0.56431241  0.40704434  0.03923240    -0.58700
C147        C  0.55145963  0.41956536  0.44598486     0.75100
C148        C  0.60042150  0.40449965  0.46604861     0.77500
Cd149      Cd  0.57556229  0.42129896  0.49352230     1.37500
O150        O  0.58320090  0.44818854  0.49334253    -0.57500
O151        O  0.59503543  0.41614568  0.45188700    -0.56300
C152        C  0.55691413  0.41836155  0.05021596     0.77400
O153        O  0.59397636  0.40030569  0.49285269    -0.58700
O154        O  0.59301920  0.43429576  0.03141036    -0.57200
O155        O  0.55667084  0.40800598  0.46074631    -0.57200
O156        O  0.55846713  0.42915981  0.53730799    -0.56300
O157        O  0.80043363  0.67896776  0.08730019    -0.57500
C158        C  0.82499793  0.70324697  0.15817922     0.75100
O159        O  0.85187107  0.67664226  0.09403183    -0.58700
C160        C  0.80283232  0.67413118  0.05792728     0.75100
C161        C  0.82950017  0.71563208  0.05749102     0.77500
Cd162      Cd  0.82646836  0.68817431  0.09546972     1.37500
O163        O  0.81328245  0.69671443  0.14668077    -0.57500
O164        O  0.81995860  0.71399207  0.08070407    -0.56300
C165        C  0.84852124  0.66556628  0.11282637     0.77400
O166        O  0.83789583  0.70430595  0.05096802    -0.58700
O167        O  0.83713397  0.70179602  0.14164147    -0.57200
O168        O  0.81627177  0.67508315  0.04708670    -0.57200
O169        O  0.83475705  0.66440843  0.12151124    -0.56300
O170        O  0.96385599  0.57153962  0.21955509    -0.57500
C171        C  0.93209016  0.55051997  0.27927137     0.75100
O172        O  0.95233585  0.59378339  0.31380166    -0.58700
C173        C  0.97227629  0.58307583  0.22287045     0.75100
C174        C  0.92238196  0.59650267  0.22816037     0.77500
Cd175      Cd  0.94529260  0.57918132  0.26243167     1.37500
O176        O  0.94163853  0.55183455  0.25574164    -0.57500
O177        O  0.92980618  0.58599190  0.21425871    -0.56300
C178        C  0.95986218  0.58276380  0.32585718     0.77400
O179        O  0.92532940  0.59907066  0.25865727    -0.58700
O180        O  0.92749848  0.56271322  0.29255503    -0.57200
O181        O  0.96784047  0.59296736  0.24354650    -0.57200
O182        O  0.96028762  0.57076442  0.30873940    -0.56300
O183        O  0.82602518  0.31005520  0.06975811    -0.57500
C184        C  0.81265056  0.33666469  0.15458104     0.75100
O185        O  0.85048389  0.30811439  0.16255848    -0.58700
C186        C  0.83878930  0.30540747  0.05908315     0.75100
C187        C  0.85641637  0.34743308  0.10189302     0.77500
Cd188      Cd  0.83704101  0.32287428  0.11892860     1.37500
O189        O  0.81090850  0.33249599  0.12445250    -0.57500
O190        O  0.84315342  0.34630162  0.09002842    -0.56300
C191        C  0.84159630  0.29686509  0.15998439     0.77400
O192        O  0.86049878  0.33739835  0.12277353    -0.58700
O193        O  0.82577034  0.33512056  0.16684643    -0.57200
O194        O  0.85042280  0.30982385  0.07470916    -0.57200
O195        O  0.83068721  0.29810847  0.13974408    -0.56300
O196        O  0.97038569  0.43765085  0.96906084    -0.57500
C197        C  0.93204388  0.45502669  0.40979056     0.75100
O198        O  0.95051165  0.41110258  0.38078013    -0.58700
C199        C  0.97734771  0.42506620  0.96894024     0.75100
C200        C  0.92755171  0.41308697  0.97157374     0.77500
Cd201      Cd  0.94599914  0.42733730  0.43030424     1.37500
O202        O  0.94208712  0.45476203  0.43249606    -0.57500
O203        O  0.93343863  0.42546745  0.98052486    -0.56300
C204        C  0.95967977  0.42057944  0.36803646     0.77400
O205        O  0.92712159  0.40758978  0.44104067    -0.58700
O206        O  0.92741872  0.44227306  0.39963969    -0.57200
O207        O  0.97115173  0.41445529  0.95279199    -0.57200
O208        O  0.96147192  0.43300662  0.38315490    -0.56300
O209        O  0.31774900  0.18661807  0.39517223    -0.57500
C210        C  0.29813868  0.16152329  0.31442818     0.75100
O211        O  0.33668663  0.18753455  0.29380540    -0.58700
C212        C  0.32974132  0.19455082  0.39679397     0.75100
C213        C  0.34538054  0.14944885  0.35742124     0.77500
Cd214      Cd  0.32530929  0.17423309  0.34223019     1.37500
O215        O  0.29812912  0.16722863  0.34354415    -0.57500
O216        O  0.33344216  0.15204309  0.37407908    -0.56300
C217        C  0.32756003  0.19865751  0.29571894     0.77400
O218        O  0.34803279  0.15834468  0.33321005    -0.58700
O219        O  0.31083340  0.16082115  0.29977863    -0.57200
O220        O  0.33986329  0.19191599  0.37514001    -0.57200
O221        O  0.31760722  0.19805074  0.31839170    -0.56300
O222        O  0.46128727  0.04775393  0.41204770    -0.57500
C223        C  0.43875451  0.03197355  0.49424484     0.75100
O224        O  0.46275711  0.07243700  0.50908495    -0.58700
C225        C  0.46631216  0.06033511  0.40147919     0.75100
C226        C  0.42377487  0.07632034  0.44429997     0.77500
Cd227      Cd  0.44998952  0.05870255  0.46247962     1.37500
O228        O  0.44555053  0.03122688  0.46641806    -0.57500
O229        O  0.42735779  0.06414834  0.42962864    -0.56300
C230        C  0.47349025  0.06749459  0.00219991     0.77400
O231        O  0.43237477  0.08033986  0.46809570    -0.58700
O232        O  0.43495991  0.04530860  0.00424407    -0.57200
O233        O  0.46283022  0.07196228  0.41839774    -0.57200
O234        O  0.47630913  0.05720544  0.47941202    -0.56300
O235        O  0.18875435  0.20119332  0.10989330    -0.57500
C236        C  0.20622254  0.16681646  0.17282816     0.75100
O237        O  0.16083949  0.18843277  0.19196654    -0.58700
C238        C  0.17601567  0.20786418  0.10792375     0.75100
C239        C  0.16286629  0.15901330  0.11056040     0.77500
Cd240      Cd  0.17913762  0.18104908  0.14802144     1.37500
O241        O  0.20653360  0.17547567  0.14749084    -0.57500
O242        O  0.17470584  0.16538689  0.09962855    -0.56300
C243        C  0.17044756  0.19672945  0.20680559     0.77400
O244        O  0.15909325  0.16189367  0.14046258    -0.58700
O245        O  0.19325562  0.16406390  0.18495837    -0.57200
O246        O  0.16504369  0.20164240  0.12279036    -0.57200
O247        O  0.18376364  0.19697057  0.19516084    -0.56300
O248        O  0.07117796  0.05212183  0.00736671    -0.57500
C249        C  0.09780535  0.04116748  0.41703692     0.75100
O250        O  0.06827560  0.07880116  0.40773225    -0.58700
C251        C  0.06509161  0.06459203  0.01588329     0.75100
C252        C  0.10494869  0.08459261  0.97292723     0.77500
Cd253      Cd  0.08288527  0.06540031  0.45200382     1.37500
O254        O  0.09361534  0.03962752  0.44717885    -0.57500
O255        O  0.10497238  0.07140405  0.98534675    -0.56300
C256        C  0.05665427  0.07049922  0.41151451     0.77400
O257        O  0.09460478  0.09050411  0.45301198    -0.58700
O258        O  0.09567258  0.05408025  0.40410022    -0.57200
O259        O  0.06772890  0.07589209  0.99742541    -0.57200
O260        O  0.05770762  0.05980541  0.43234394    -0.56300
O261        O  0.45365654  0.92723609  0.22304149    -0.57500
C262        C  0.42935683  0.94329613  0.14276793     0.75100
O263        O  0.45495110  0.90100975  0.13159448    -0.58700
C264        C  0.46169839  0.91555564  0.22831785     0.75100
C265        C  0.41546760  0.89899490  0.19403622     0.77500
Cd266      Cd  0.44111889  0.91667869  0.17351010     1.37500
O267        O  0.43519032  0.94376288  0.17171471    -0.57500
O268        O  0.41899976  0.91134103  0.20805778    -0.56300
C269        C  0.46362297  0.91188868  0.12348244     0.77400
O270        O  0.42373357  0.89488272  0.16973494    -0.58700
O271        O  0.42774947  0.93029975  0.12989271    -0.57200
O272        O  0.45964636  0.90443399  0.20899266    -0.57200
O273        O  0.46145854  0.92441551  0.13793920    -0.56300
O274        O  0.29169418  0.81636622  0.32730740    -0.57500
C275        C  0.31433935  0.79027435  0.25181744     0.75100
O276        O  0.34139284  0.81874487  0.31543858    -0.58700
C277        C  0.29560802  0.82108721  0.35597660     0.75100
C278        C  0.32137660  0.77824163  0.35119154     0.77500
Cd279      Cd  0.31690756  0.80565312  0.31405210     1.37500
O280        O  0.30257084  0.79621149  0.26472205    -0.57500
O281        O  0.30904411  0.78178024  0.33712641    -0.56300
C282        C  0.33800239  0.82835945  0.29307855     0.77400
O283        O  0.33206734  0.78779266  0.34879433    -0.58700
O284        O  0.32667138  0.79203921  0.26732784    -0.57200
O285        O  0.30930199  0.81902789  0.36426086    -0.57200
O286        O  0.32446458  0.82810583  0.28249983    -0.56300
O287        O  0.06687225  0.93764001  0.19930966    -0.57500
C288        C  0.09798182  0.95192044  0.26903865     0.75100
O289        O  0.07183382  0.91026467  0.28808963    -0.58700
C290        C  0.05869952  0.92603916  0.19455992     0.75100
C291        C  0.10486525  0.90702700  0.21211200     0.77500
Cd292      Cd  0.08270204  0.92598770  0.24273821     1.37500
O293        O  0.09035213  0.95255620  0.24223194    -0.57500
O294        O  0.10149940  0.91995817  0.20070220    -0.56300
C295        C  0.06322949  0.92089388  0.29804386     0.77400
O296        O  0.09868026  0.90323956  0.23947080    -0.58700
O297        O  0.09957683  0.93892365  0.28201573    -0.57200
O298        O  0.06200948  0.91434761  0.21127541    -0.57200
O299        O  0.06442166  0.93351135  0.28340521    -0.56300
O300        O  0.20704253  0.80228534  0.12588636    -0.57500
C301        C  0.22278554  0.82913975  0.04351207     0.75100
O302        O  0.18535168  0.80017992  0.02788954    -0.58700
C303        C  0.19448526  0.79570061  0.13152640     0.75100
C304        C  0.17729814  0.83748479  0.09480665     0.77500
Cd305      Cd  0.19759559  0.81442718  0.07423074     1.37500
O306        O  0.22424274  0.82275382  0.07175876    -0.57500
O307        O  0.19006650  0.83539478  0.10848484    -0.56300
C308        C  0.19466577  0.78922610  0.03025679     0.77400
O309        O  0.17404080  0.82913359  0.07001125    -0.58700
O310        O  0.20953374  0.82965897  0.03145975    -0.57200
O311        O  0.18367451  0.79868280  0.11184741    -0.57200
O312        O  0.20529718  0.79064715  0.05112578    -0.56300
O313        O  0.72802960  0.17219793  0.07687414    -0.57500
C314        C  0.70100093  0.20288658  0.13352942     0.75100
O315        O  0.68373296  0.19365196  0.04212459    -0.58700
C316        C  0.72685347  0.16800846  0.04664726     0.75100
C317        C  0.68345796  0.15615659  0.10548790     0.77500
Cd318      Cd  0.70142818  0.18079925  0.08105966     1.37500
O319        O  0.71332642  0.19652029  0.12500073    -0.57500
O320        O  0.69597207  0.15966169  0.11880189    -0.56300
C321        C  0.69386243  0.20275864  0.03195811     0.77400
O322        O  0.67980308  0.16363133  0.07965655    -0.58700
O323        O  0.68913911  0.19832363  0.11909175    -0.57200
O324        O  0.71373793  0.16848183  0.03389329    -0.57200
O325        O  0.70704822  0.20113170  0.04370201    -0.56300
O326        O  0.58972249  0.03658938  0.21630251    -0.57500
C327        C  0.56408225  0.06521634  0.15053389     0.75100
O328        O  0.56540970  0.07736542  0.25146106    -0.58700
C329        C  0.59427141  0.03768130  0.24623933     0.75100
C330        C  0.60543777  0.08362690  0.19526016     0.77500
Cd331      Cd  0.58133863  0.06322791  0.21095957     1.37500
O332        O  0.57018712  0.05269764  0.15876484    -0.57500
O333        O  0.60427746  0.07070588  0.18170540    -0.56300
C334        C  0.55445553  0.06812078  0.24877278     0.77400
O335        O  0.59582405  0.08680234  0.21777776    -0.58700
O336        O  0.56709187  0.07647687  0.16877806    -0.57200
O337        O  0.59366170  0.05082954  0.25886589    -0.57200
O338        O  0.55662037  0.05658117  0.23075463    -0.56300
O339        O  0.69511416  0.80134561  0.08084738    -0.57500
C340        C  0.71030891  0.82772154  0.16144424     0.75100
O341        O  0.66238005  0.83385586  0.12089368    -0.58700
C342        C  0.68282060  0.79419496  0.07588870     0.75100
C343        C  0.67670979  0.79362175  0.17457094     0.77500
Cd344      Cd  0.68432305  0.81644707  0.12697224     1.37500
O345        O  0.71154893  0.82245849  0.13208574    -0.57500
O346        O  0.68705480  0.79229104  0.15294247    -0.56300
C347        C  0.66805723  0.84096636  0.09632213     0.77400
O348        O  0.66947726  0.80611040  0.17511417    -0.58700
O349        O  0.69703246  0.82887567  0.17320287    -0.57200
O350        O  0.67132251  0.79837891  0.09244432    -0.57200
O351        O  0.68130560  0.83710585  0.08760756    -0.56300
O352        O  0.58331778  0.95024785  0.42552144    -0.57500
C353        C  0.55460688  0.91990731  0.97556509     0.75100
O354        O  0.56441038  0.91005977  0.37601949    -0.58700
C355        C  0.59064430  0.94982501  0.39818929     0.75100
C356        C  0.60136067  0.90752399  0.95542516     0.77500
Cd357      Cd  0.57633369  0.92315237  0.42446836     1.37500
O358        O  0.56034030  0.93301491  0.97190794    -0.57500
O359        O  0.59595925  0.91936177  0.96875624    -0.56300
C360        C  0.55325821  0.91923673  0.37571107     0.77400
O361        O  0.59362627  0.90113599  0.42483832    -0.58700
O362        O  0.56061223  0.90917967  0.95929739    -0.57200
O363        O  0.59173199  0.93700211  0.38414763    -0.57200
O364        O  0.55374155  0.93020536  0.39595895    -0.56300
O365        O  0.94402659  0.95988433  0.48634672    -0.57500
C366        C  0.97326554  0.92746639  0.44718956     0.75100
O367        O  0.95831847  0.92058605  0.54370176    -0.58700
C368        C  0.93536011  0.96053398  0.51163487     0.75100
C369        C  0.92566287  0.91456890  0.46102142     0.77500
Cd370      Cd  0.94863414  0.93276104  0.49134853     1.37500
O371        O  0.96526116  0.93936582  0.44422136    -0.57500
O372        O  0.92946384  0.92733693  0.44935300    -0.56300
C373        C  0.96827436  0.93084107  0.54791633     0.77400
O374        O  0.93176663  0.91056904  0.48838709    -0.58700
O375        O  0.96904789  0.91785175  0.46864260    -0.57200
O376        O  0.93022219  0.95091826  0.02297169    -0.57200
O377        O  0.96809732  0.94172041  0.52740202    -0.56300
O378        O  0.80097848  0.83121184  0.33318069    -0.57500
C379        C  0.82660172  0.80625348  0.40553961     0.75100
O380        O  0.83958997  0.80474333  0.30138364    -0.58700
C381        C  0.80283731  0.83276128  0.30189946     0.75100
C382        C  0.84834845  0.84511123  0.35894853     0.77500
Cd383      Cd  0.82709195  0.82160922  0.34275113     1.37500
O384        O  0.81487027  0.81327370  0.39544488    -0.57500
O385        O  0.83448217  0.84583802  0.36699795    -0.56300
C386        C  0.82989455  0.79424027  0.30519402     0.77400
O387        O  0.85215694  0.83405224  0.34048236    -0.58700
O388        O  0.83829608  0.80708778  0.38736684    -0.57200
O389        O  0.81617043  0.83093850  0.29088351    -0.57200
O390        O  0.81966309  0.79653511  0.32673879    -0.56300
O391        O  0.93822976  0.04656108  0.19360903    -0.57500
C392        C  0.96552540  0.07140261  0.26357007     0.75100
O393        O  0.96484399  0.08525613  0.16296664    -0.58700
C394        C  0.93408614  0.04937455  0.16388662     0.75100
C395        C  0.92427153  0.09202822  0.22242690     0.77500
Cd396      Cd  0.94816698  0.07212885  0.20365916     1.37500
O397        O  0.95882357  0.05953313  0.25337787    -0.57500
O398        O  0.92563011  0.07881138  0.23438104    -0.56300
C399        C  0.97447890  0.07451613  0.16325171     0.77400
O400        O  0.93397243  0.09598962  0.20063759    -0.58700
O401        O  0.96320611  0.08346831  0.24726504    -0.57200
O402        O  0.93540356  0.06298430  0.15432644    -0.57200
O403        O  0.97163240  0.06328872  0.18176949    -0.56300
O404        O  0.81678694  0.18065704  0.38443650    -0.57500
C405        C  0.84035436  0.20810693  0.31400976     0.75100
O406        O  0.85724993  0.20593753  0.41481737    -0.58700
C407        C  0.81989659  0.17592029  0.41357686     0.75100
C408        C  0.86009794  0.16645125  0.34802674     0.77500
Cd409      Cd  0.84226178  0.19074495  0.37394566     1.37500
O410        O  0.82849968  0.20199563  0.32601720    -0.57500
O411        O  0.84607410  0.16798912  0.34230437    -0.56300
C412        C  0.84762431  0.21667769  0.41525028     0.77400
O413        O  0.86601095  0.17607466  0.36765602    -0.58700
O414        O  0.85265226  0.20569094  0.32933180    -0.57200
O415        O  0.83347239  0.17734953  0.42334422    -0.57200
O416        O  0.83586929  0.21482192  0.39765388    -0.56300
C417        C  0.89085955  0.10815639  0.27031283    -0.11100
C418        C  0.89412257  0.12365920  0.26888595     0.15400
C419        C  0.90615386  0.12881147  0.24864586     0.02300
C420        C  0.91532422  0.11825750  0.23218845    -0.15500
C421        C  0.91258232  0.10262527  0.23496190    -0.10300
C422        C  0.89969282  0.09763208  0.25298681     0.09100
C423        C  0.88518976  0.13406474  0.28995347     0.10100
S424        S  0.91065958  0.14861992  0.24360988    -0.24600
H425        H  0.92500444  0.12230506  0.21811116     0.20300
S426        S  0.89374547  0.07811398  0.25478104    -0.30300
H427        H  0.88139058  0.10422758  0.28525785     0.10700
C428        C  0.86984918  0.13703305  0.28310263     0.03900
C429        C  0.86188069  0.14715693  0.30345357    -0.12600
C430        C  0.86888519  0.15444748  0.33067772    -0.08300
C431        C  0.88414831  0.15083024  0.33829887     0.07300
C432        C  0.89215423  0.14086014  0.31759351    -0.13400
S433        S  0.86060764  0.12849895  0.24749033    -0.30300
H434        H  0.85020452  0.14972991  0.29736456     0.11600
S435        S  0.89401143  0.15815871  0.37416980    -0.27400
H436        H  0.90389442  0.13824268  0.32321308     0.08800
H437        H  0.89750182  0.07501458  0.22129083     0.27200
H438        H  0.84646729  0.13567320  0.25148538     0.22000
H439        H  0.88175553  0.15578553  0.39608790     0.27300
H440        H  0.89588594  0.15413847  0.24885916     0.16200
C441        C  0.91611592  0.99327364  0.06048597    -0.11100
C442        C  0.92826723  0.00337388  0.06372592     0.15400
C443        C  0.94143602  0.00124597  0.04408183     0.02300
C444        C  0.94234247  0.98873181  0.02277055    -0.15500
C445        C  0.93067356  0.97794393  0.02159205    -0.10300
C446        C  0.91712550  0.98067651  0.03944505     0.09100
C447        C  0.92728025  0.01530894  0.08945675     0.10100
S448        S  0.95792050  0.01332832  0.04664272    -0.24600
H449        H  0.95275231  0.98495254  0.51466520     0.20300
S450        S  0.90085652  0.96840897  0.03678048    -0.30300
H451        H  0.90590644  0.99503723  0.07507506     0.10700
C452        C  0.92623563  0.03073155  0.08103388     0.03900
C453        C  0.92727793  0.04163041  0.10633542    -0.12600
C454        C  0.92922783  0.03743459  0.14005759    -0.08300
C455        C  0.92868857  0.02185623  0.14852277     0.07300
C456        C  0.92798689  0.01101547  0.12312084    -0.13400
S457        S  0.92406635  0.03651901  0.03800896    -0.30300
H458        H  0.92730051  0.05349066  0.09947801     0.11600
S459        S  0.92912432  0.01493640  0.19084493    -0.27400
H460        H  0.92832509  0.99909096  0.12958943     0.08800
H461        H  0.90390506  0.96338917  0.00409497     0.27200
H462        H  0.92327489  0.05220212  0.04402392     0.22000
H463        H  0.91883993  0.02591054  0.20268508     0.27300
H464        H  0.95608055  0.01773193  0.08011085     0.16200
C465        C  0.90642311  0.88028028  0.42266926    -0.11100
C466        C  0.89371802  0.88697710  0.40761868     0.15400
C467        C  0.89182563  0.90285203  0.40935563     0.02300
C468        C  0.90232478  0.91156224  0.42716231    -0.15500
C469        C  0.91487045  0.90481409  0.44287453    -0.10300
C470        C  0.91715681  0.88903314  0.43957858     0.09100
C471        C  0.88196805  0.87694247  0.39328485     0.10100
S472        S  0.87629270  0.91262789  0.38941990    -0.24600
H473        H  0.90066409  0.92371023  0.42883969     0.20300
S474        S  0.93384612  0.87949067  0.45492045    -0.30300
H475        H  0.90798225  0.86811324  0.42120246     0.10700
C476        C  0.88467361  0.86798689  0.36475052     0.03900
C477        C  0.87344135  0.85787637  0.35376438    -0.12600
C478        C  0.85960569  0.85636705  0.37100233    -0.08300
C479        C  0.85714634  0.86527756  0.40000948     0.07300
C480        C  0.86817049  0.87561240  0.41027661    -0.13400
S481        S  0.90234019  0.86957033  0.34215339    -0.30300
H482        H  0.87548131  0.85106711  0.33172958     0.11600
S483        S  0.84084300  0.86328657  0.42680645    -0.27400
H484        H  0.86625923  0.88223964  0.43268964     0.08800
H485        H  0.94393979  0.89117515  0.44617046     0.27200
H486        H  0.89900826  0.85877471  0.31739737     0.22000
H487        H  0.84187559  0.84738343  0.42821673     0.27300
H488        H  0.87420851  0.90205774  0.36356750     0.16200
C489        C  0.73757489  0.83147945  0.23400613    -0.11100
C490        C  0.74984836  0.83889058  0.21897019     0.15400
C491        C  0.74886791  0.84309276  0.18495895     0.02300
C492        C  0.73586407  0.83936638  0.16659989    -0.15500
C493        C  0.72368319  0.83174415  0.18164237    -0.10300
C494        C  0.72464441  0.82773049  0.21577029     0.09100
C495        C  0.76421013  0.83959916  0.23808134     0.10100
S496        S  0.76382904  0.85310191  0.16364049    -0.24600
H497        H  0.73521649  0.84249760  0.14046369     0.20300
S498        S  0.71043198  0.81659998  0.23688311    -0.30300
H499        H  0.73844878  0.82778308  0.25975913     0.10700
C500        C  0.76532974  0.84746109  0.26865890     0.03900
C501        C  0.77820757  0.84538829  0.28887335    -0.12600
C502        C  0.78998741  0.83563071  0.27899221    -0.08300
C503        C  0.78887470  0.82802596  0.24793314     0.07300
C504        C  0.77617654  0.83027766  0.22775035    -0.13400
S505        S  0.75031270  0.86004468  0.28188734    -0.30300
H506        H  0.77903731  0.85121182  0.31259159     0.11600
S507        S  0.80240890  0.81404108  0.23403670    -0.27400
H508        H  0.77515632  0.82390773  0.20471503     0.08800
H509        H  0.70785310  0.80672816  0.20988610     0.27200
H510        H  0.75717285  0.86476952  0.31181780     0.22000
H511        H  0.80343456  0.80676835  0.26523187     0.27300
H512        H  0.76993624  0.85997546  0.19229875     0.16200
C513        C  0.63842715  0.86988405  0.06873987    -0.11100
C514        C  0.64206824  0.87126739  0.03475278     0.15400
C515        C  0.65508060  0.86393408  0.02220906     0.02300
C516        C  0.66348637  0.85448601  0.04319189    -0.15500
C517        C  0.65954887  0.85250556  0.07697428    -0.10300
C518        C  0.64717596  0.86082532  0.09010379     0.09100
C519        C  0.63207763  0.88037499  0.01294714     0.10100
S520        S  0.66522368  0.87193026  0.48889103    -0.24600
H521        H  0.67306229  0.84840570  0.03273460     0.20300
S522        S  0.64228551  0.86082575  0.13380176    -0.30300
H523        H  0.62870799  0.87592688  0.07866610     0.10700
C524        C  0.62235901  0.87354373  0.98942147     0.03900
C525        C  0.61298678  0.88270452  0.96950700    -0.12600
C526        C  0.61316179  0.89855357  0.97269993    -0.08300
C527        C  0.62348593  0.90531974  0.99527511     0.07300
C528        C  0.63256803  0.89616874  0.01554096    -0.13400
S529        S  0.62139724  0.85316054  0.98586929    -0.30300
H530        H  0.60505064  0.87748448  0.95242143     0.11600
S531        S  0.62601231  0.92553111  0.99874379    -0.27400
H532        H  0.64031198  0.90139949  0.03308840     0.08800
H533        H  0.65741277  0.86053096  0.14496386     0.27200
H534        H  0.61112783  0.85274650  0.95902161     0.22000
H535        H  0.62519365  0.92333966  0.44476022     0.27300
H536        H  0.65244919  0.87248189  0.46798438     0.16200
C537        C  0.61063508  0.97586646  0.33695471    -0.11100
C538        C  0.60177932  0.98900006  0.34010280     0.15400
C539        C  0.59091976  0.98986875  0.36604141     0.02300
C540        C  0.58859260  0.97735795  0.38691045    -0.15500
C541        C  0.59655056  0.96374495  0.38198604    -0.10300
C542        C  0.60833323  0.96336485  0.35794283     0.09100
C543        C  0.60289303  0.00091167  0.31408100     0.10100
S544        S  0.57887095  0.00616773  0.37235232    -0.24600
H545        H  0.57963099  0.97790439  0.40541383     0.20300
S546        S  0.62080435  0.94732368  0.35281557    -0.30300
H547        H  0.61918956  0.97524721  0.31754972     0.10700
C548        C  0.60859726  0.01546459  0.32089436     0.03900
C549        C  0.60651548  0.02710343  0.29734894    -0.12600
C550        C  0.59922575  0.02438966  0.26658122    -0.08300
C551        C  0.59518595  0.00927561  0.25852298     0.07300
C552        C  0.59680053  0.99785095  0.28251067    -0.13400
S553        S  0.61810694  0.01927140  0.35990906    -0.30300
H554        H  0.61008280  0.03849188  0.30352459     0.11600
S555        S  0.58702429  0.00382789  0.21914001    -0.27400
H556        H  0.59275041  0.98654051  0.27693723     0.08800
H557        H  0.62060416  0.94316016  0.38676026     0.27200
H558        H  0.62290514  0.03401432  0.35178671     0.22000
H559        H  0.59872638  0.01054582  0.20037448     0.27300
H560        H  0.57688774  0.00958466  0.33834447     0.16200
C561        C  0.79425036  0.16979071  0.48807549    -0.11100
C562        C  0.78312040  0.16024677  0.47453193     0.15400
C563        C  0.78518939  0.15447549  0.44187182     0.02300
C564        C  0.79745021  0.15950526  0.42257945    -0.15500
C565        C  0.80808280  0.16970723  0.43565783    -0.10300
C566        C  0.80669480  0.17448978  0.46918755     0.09100
C567        C  0.76834636  0.15925581  0.49230756     0.10100
S568        S  0.77242731  0.14094421  0.42328003    -0.24600
H569        H  0.79864086  0.15552571  0.39710457     0.20300
S570        S  0.81954504  0.18776283  0.48841410    -0.30300
H571        H  0.79267537  0.17455108  0.51277916     0.10700
C572        C  0.76509567  0.15124105  0.02442202     0.03900
C573        C  0.75170608  0.15481472  0.04180794    -0.12600
C574        C  0.74021530  0.16345565  0.02673702    -0.08300
C575        C  0.74206338  0.16825464  0.99326019     0.07300
C576        C  0.75544820  0.16485410  0.47594447    -0.13400
S577        S  0.77948553  0.13974147  0.04412614    -0.30300
H578        H  0.75022236  0.15100551  0.06730840     0.11600
S579        S  0.72863245  0.18023147  0.97200186    -0.27400
H580        H  0.75622941  0.16829323  0.45000525     0.08800
H581        H  0.82019727  0.19758036  0.46074773     0.27200
H582        H  0.77141498  0.13679020  0.07373868     0.22000
H583        H  0.72740037  0.19026462  0.99911222     0.27300
H584        H  0.76702329  0.13500527  0.45363900     0.16200
C585        C  0.66528899  0.12636862  0.16224553    -0.11100
C586        C  0.65170344  0.12375468  0.14515307     0.15400
C587        C  0.64889692  0.13131343  0.11479603     0.02300
C588        C  0.65961924  0.14145786  0.10238529    -0.15500
C589        C  0.67324124  0.14436074  0.11947916    -0.10300
C590        C  0.67610381  0.13661389  0.14996542     0.09100
C591        C  0.64041146  0.11345763  0.16007989     0.10100
S592        S  0.63172362  0.12876217  0.09098017    -0.24600
H593        H  0.65714106  0.14725880  0.07916417     0.20300
S594        S  0.69310767  0.13974939  0.17424381    -0.30300
H595        H  0.66725478  0.12047902  0.18557657     0.10700
C596        C  0.64242334  0.09764814  0.15929237     0.03900
C597        C  0.63093303  0.08824555  0.17160873    -0.12600
C598        C  0.61743270  0.09431058  0.18472097    -0.08300
C599        C  0.61558256  0.11025354  0.18579880     0.07300
C600        C  0.62716572  0.11961132  0.17388181    -0.13400
S601        S  0.65931164  0.08943554  0.14119270    -0.30300
H602        H  0.63239436  0.07606864  0.17060801     0.11600
S603        S  0.59841986  0.11940086  0.19968711    -0.27400
H604        H  0.62562925  0.13180431  0.17421923     0.08800
H605        H  0.68919955  0.13066945  0.20181182     0.27200
H606        H  0.65607080  0.07429313  0.14948703     0.22000
H607        H  0.58880081  0.10976374  0.18143207     0.27300
H608        H  0.62932923  0.11355623  0.09995157     0.16200
C609        C  0.01252344  0.91501915  0.42001826    -0.11100
C610        C  0.01273185  0.92017167  0.38701583     0.15400
C611        C  0.99991999  0.92765556  0.37368276     0.02300
C612        C  0.98720942  0.92997042  0.39388091    -0.15500
C613        C  0.98699254  0.92492657  0.42706453    -0.10300
C614        C  0.99993126  0.91756632  0.44038834     0.09100
C615        C  0.02705919  0.91931644  0.36840706     0.10100
S616        S  0.99928989  0.93511105  0.33168963    -0.24600
H617        H  0.97739412  0.93570826  0.38357143     0.20300
S618        S  0.00167933  0.91239514  0.48380403    -0.30300
H619        H  0.02254619  0.90969689  0.43045398     0.10700
C620        C  0.03672338  0.93194193  0.36695856     0.03900
C621        C  0.04911757  0.93166734  0.34526937    -0.12600
C622        C  0.05192170  0.91908052  0.32471461    -0.08300
C623        C  0.04258731  0.90613208  0.32745006     0.07300
C624        C  0.03039823  0.90628489  0.34982497    -0.13400
S625        S  0.03291495  0.94861023  0.39183325    -0.30300
H626        H  0.05636563  0.94152766  0.34339806     0.11600
S627        S  0.04459164  0.88981976  0.30077170    -0.27400
H628        H  0.02285429  0.89661819  0.35105312     0.08800
H629        H  0.99474804  0.92569850  0.49571391     0.27200
H630        H  0.04377619  0.95802185  0.37663676     0.22000
H631        H  0.04599980  0.89833588  0.27120697     0.27300
H632        H  0.00985517  0.92509105  0.31747901     0.16200
C633        C  0.99181223  0.92175992  0.12150623    -0.11100
C634        C  0.00539975  0.92874859  0.11176631     0.15400
C635        C  0.00591291  0.93712006  0.08187136     0.02300
C636        C  0.99277226  0.93884797  0.06305926    -0.15500
C637        C  0.97914991  0.93167236  0.07216873    -0.10300
C638        C  0.97865509  0.92316636  0.10207074     0.09100
C639        C  0.01872387  0.92791200  0.13389120     0.10100
S640        S  0.02308653  0.94558066  0.06599415    -0.24600
H641        H  0.99480046  0.94475290  0.54369749     0.20300
S642        S  0.96156495  0.91450240  0.11753826    -0.30300
H643        H  0.99139207  0.91545375  0.14471839     0.10700
C644        C  0.02352745  0.94066420  0.15213844     0.03900
C645        C  0.03688856  0.93981709  0.17087205    -0.12600
C646        C  0.04548205  0.92642623  0.17202076    -0.08300
C647        C  0.04058634  0.91363527  0.15364246     0.07300
C648        C  0.02719174  0.91448852  0.13504634    -0.13400
S649        S  0.01243702  0.95790658  0.15216148    -0.30300
H650        H  0.04046610  0.94951843  0.18539230     0.11600
S651        S  0.05117244  0.89617311  0.15158457    -0.27400
H652        H  0.02357010  0.90477847  0.12055048     0.08800
H653        H  0.95196922  0.92633121  0.10703059     0.27200
H654        H  0.02220948  0.96644345  0.17251565     0.22000
H655        H  0.06544424  0.90320444  0.15180231     0.27300
H656        H  0.03285490  0.93411892  0.07755808     0.16200
C657        C  0.16095465  0.87029373  0.14358249    -0.11100
C658        C  0.14559594  0.86639452  0.14420758     0.15400
C659        C  0.14047021  0.85368418  0.12606466     0.02300
C660        C  0.15097220  0.84493621  0.10832332    -0.15500
C661        C  0.16647662  0.84853991  0.10860769    -0.10300
C662        C  0.17140445  0.86165178  0.12567351     0.09100
C663        C  0.13515860  0.87654145  0.16205040     0.10100
S664        S  0.12084849  0.84785304  0.12488792    -0.24600
H665        H  0.14708899  0.83487198  0.09541810     0.20300
S666        S  0.19072707  0.86828481  0.12469126    -0.30300
H667        H  0.16477205  0.88032929  0.15671155     0.10700
C668        C  0.13373225  0.87612407  0.19704651     0.03900
C669        C  0.12375260  0.88621165  0.21283296    -0.12600
C670        C  0.11530732  0.89676772  0.19423053    -0.08300
C671        C  0.11686629  0.89706076  0.15898754     0.07300
C672        C  0.12685347  0.88704515  0.14343500    -0.13400
S673        S  0.14449669  0.86265254  0.22141264    -0.30300
H674        H  0.12260680  0.88596126  0.23975027     0.11600
S675        S  0.10604975  0.90935301  0.13204657    -0.27400
H676        H  0.12803402  0.88728295  0.11648305     0.08800
H677        H  0.19347837  0.86366788  0.09158251     0.27200
H678        H  0.13857314  0.86676457  0.25276725     0.22000
H679        H  0.09225543  0.90660649  0.14852757     0.27300
H680        H  0.11609399  0.85502232  0.15440723     0.16200
C681        C  0.27940604  0.84177064  0.43071652    -0.11100
C682        C  0.26527230  0.83468639  0.43350156     0.15400
C683        C  0.26032058  0.82483553  0.40792306     0.02300
C684        C  0.27000902  0.82158762  0.38118764    -0.15500
C685        C  0.28464231  0.82776465  0.37968330    -0.10300
C686        C  0.28904900  0.83857028  0.40387218     0.09100
C687        C  0.25633753  0.83683444  0.46427527     0.10100
S688        S  0.24207052  0.81556156  0.40846573    -0.24600
H689        H  0.26645451  0.81339333  0.36263302     0.20300
S690        S  0.30675265  0.84870359  0.40174795    -0.30300
H691        H  0.28305612  0.84959953  0.44993170     0.10700
C692        C  0.26051463  0.82588955  0.00166798     0.03900
C693        C  0.24954582  0.82583248  0.02702465    -0.12600
C694        C  0.23599803  0.83407631  0.02355787    -0.08300
C695        C  0.23441837  0.84414430  0.99626706     0.07300
C696        C  0.24361384  0.84633517  0.46368727    -0.13400
S697        S  0.27696613  0.81376358  0.00503859    -0.30300
H698        H  0.25090444  0.81822440  0.04803126     0.11600
S699        S  0.21867214  0.85707243  0.99218928    -0.27400
H700        H  0.24150513  0.85340368  0.44204164     0.08800
H701        H  0.30746303  0.84889570  0.36662712     0.27200
H702        H  0.27447506  0.80913268  0.03821861     0.22000
H703        H  0.21626972  0.85863966  0.02678531     0.27300
H704        H  0.24063278  0.81423333  0.44327290     0.16200
C705        C  0.49878644  0.89923099  0.07638278    -0.11100
C706        C  0.50115142  0.91196613  0.05607643     0.15400
C707        C  0.49013113  0.92353271  0.05500283     0.02300
C708        C  0.47779715  0.92289988  0.07670670    -0.15500
C709        C  0.47578180  0.91060132  0.09848580    -0.10300
C710        C  0.48619312  0.89841559  0.09765390     0.09100
C711        C  0.51545821  0.91331585  0.03730291     0.10100
S712        S  0.49130825  0.93947422  0.02687834    -0.24600
H713        H  0.46970709  0.93216787  0.07673663     0.20300
S714        S  0.48464063  0.88210114  0.12449316    -0.30300
H715        H  0.50713278  0.89020276  0.07670274     0.10700
C716        C  0.52657205  0.92404367  0.04625969     0.03900
C717        C  0.53935649  0.92592094  0.02587172    -0.12600
C718        C  0.54121596  0.91725996  0.99679107    -0.08300
C719        C  0.52999965  0.90646848  0.98807714     0.07300
C720        C  0.51743857  0.90443281  0.00876915    -0.13400
S721        S  0.52453355  0.93522289  0.08379592    -0.30300
H722        H  0.54795390  0.93411032  0.03262121     0.11600
S723        S  0.53029816  0.89577250  0.94970874    -0.27400
H724        H  0.50873930  0.89638181  0.00171373     0.08800
H725        H  0.48065749  0.89039547  0.15319127     0.27200
H726        H  0.53699626  0.94480930  0.07806946     0.22000
H727        H  0.53486658  0.90809910  0.92996307     0.27300
H728        H  0.49875474  0.93165802  0.00101424     0.16200
C729        C  0.52648702  0.91016896  0.30383423    -0.11100
C730        C  0.51267923  0.91505793  0.31760141     0.15400
C731        C  0.51223538  0.92040240  0.35071399     0.02300
C732        C  0.52571407  0.92164052  0.36858907    -0.15500
C733        C  0.53968866  0.91723186  0.35466477    -0.10300
C734        C  0.54002334  0.91125688  0.32195263     0.09100
C735        C  0.49913130  0.91539309  0.29616118     0.10100
S736        S  0.49492069  0.92601595  0.37145891    -0.24600
H737        H  0.52523535  0.92597818  0.39389817     0.20300
S738        S  0.55730539  0.90576381  0.30122564    -0.30300
H739        H  0.52679025  0.90603945  0.27835086     0.10700
C740        C  0.49336141  0.92915774  0.28361880     0.03900
C741        C  0.48061474  0.92894024  0.26282335    -0.12600
C742        C  0.47353515  0.91523102  0.25432190    -0.08300
C743        C  0.47904226  0.90152011  0.26816572     0.07300
C744        C  0.49191799  0.90174043  0.28843160    -0.13400
S745        S  0.50263627  0.94691935  0.29283551    -0.30300
H746        H  0.47652939  0.93943550  0.25206384     0.11600
S747        S  0.46999896  0.88344934  0.26179741    -0.27400
H748        H  0.49623622  0.89121893  0.29869936     0.08800
H749        H  0.56586533  0.91795504  0.31365348     0.27200
H750        H  0.49206285  0.95636407  0.27671363     0.22000
H751        H  0.45515425  0.88931008  0.26305778     0.27300
H752        H  0.48514040  0.91665001  0.35304907     0.16200
C753        C  0.38394080  0.86969053  0.20141293    -0.11100
C754        C  0.38051334  0.87078175  0.23553339     0.15400
C755        C  0.38793410  0.88169865  0.25525738     0.02300
C756        C  0.39901262  0.89090383  0.24079724    -0.15500
C757        C  0.40274814  0.88968968  0.20674932    -0.10300
C758        C  0.39474812  0.87920321  0.18667876     0.09100
C759        C  0.36952658  0.86007315  0.25019160     0.10100
S760        S  0.38414796  0.88407638  0.29923547    -0.24600
H761        H  0.40496692  0.89891018  0.25653917     0.20300
S762        S  0.39733432  0.87777487  0.14213878    -0.30300
H763        H  0.37805012  0.86145187  0.18613675     0.10700
C764        C  0.35386103  0.86308013  0.24986549     0.03900
C765        C  0.34385643  0.85266302  0.26449516    -0.12600
C766        C  0.34920625  0.83918938  0.27921739    -0.08300
C767        C  0.36499787  0.83616844  0.27886286     0.07300
C768        C  0.37494740  0.84673103  0.26484763    -0.13400
S769        S  0.34671773  0.88033215  0.23132333    -0.30300
H770        H  0.33180790  0.85502792  0.26444502     0.11600
S771        S  0.37317838  0.81873697  0.29390996    -0.27400
H772        H  0.38701977  0.84439397  0.26470229     0.08800
H773        H  0.39862335  0.89350895  0.13714845     0.27200
H774        H  0.33137519  0.87801936  0.23944309     0.22000
H775        H  0.36263950  0.80947972  0.27720966     0.27300
H776        H  0.36867586  0.88039081  0.29786090     0.16200
C777        C  0.01516294  0.07030724  0.38746994    -0.11100
C778        C  0.01609488  0.07321975  0.35319113     0.15400
C779        C  0.03027553  0.07675614  0.33869863     0.02300
C780        C  0.04333985  0.07645940  0.35854555    -0.15500
C781        C  0.04250597  0.07284681  0.39261633    -0.10300
C782        C  0.02814731  0.07027589  0.40740335     0.09100
C783        C  0.00215999  0.07193095  0.33306820     0.10100
S784        S  0.03255311  0.08107601  0.29490516    -0.24600
H785        H  0.05427465  0.07854561  0.34707101     0.20300
S786        S  0.02556928  0.06710129  0.45159198    -0.30300
H787        H  0.00423901  0.06790327  0.39870196     0.10700
C788        C  0.99911254  0.05882655  0.31422340     0.03900
C789        C  0.98630379  0.05848172  0.29356189    -0.12600
C790        C  0.97661053  0.07107248  0.29115167    -0.08300
C791        C  0.97919819  0.08384002  0.31169133     0.07300
C792        C  0.99194372  0.08408850  0.33258473    -0.13400
S793        S  0.01179910  0.04274680  0.31578376    -0.30300
H794        H  0.98431542  0.04871777  0.27781952     0.11600
S795        S  0.96628651  0.09977628  0.31172064    -0.27400
H796        H  0.99424304  0.09391676  0.34792704     0.08800
H797        H  0.03729257  0.07688058  0.46166403     0.27200
H798        H  0.00370722  0.03351972  0.29340714     0.22000
H799        H  0.97444561  0.10886740  0.33425076     0.27300
H800        H  0.01789431  0.08682906  0.28956168     0.16200
C801        C  0.03896846  0.08123592  0.08123490    -0.11100
C802        C  0.02939291  0.06891096  0.08722851     0.15400
C803        C  0.03283497  0.05463312  0.07310162     0.02300
C804        C  0.04538629  0.05325747  0.05194609    -0.15500
C805        C  0.05448314  0.06582196  0.04428384    -0.10300
C806        C  0.05159676  0.07980383  0.06042265     0.09100
C807        C  0.01576647  0.07146920  0.10769950     0.10100
S808        S  0.02156164  0.03780819  0.07983707    -0.24600
H809        H  0.04750966  0.04247976  0.03983948     0.20300
S810        S  0.06359722  0.09620417  0.05582853    -0.30300
H811        H  0.03653630  0.09207505  0.09280458     0.10700
C812        C  0.01515919  0.06681744  0.14122999     0.03900
C813        C  0.00157146  0.06837681  0.15887345    -0.12600
C814        C  0.98862563  0.07468191  0.14379145    -0.08300
C815        C  0.98945135  0.07986165  0.11046973     0.07300
C816        C  0.00308242  0.07832903  0.09288251    -0.13400
S817        S  0.03158344  0.05866932  0.16134325    -0.30300
H818        H  0.00095720  0.06447190  0.18449134     0.11600
S819        S  0.97338082  0.08751349  0.08834876    -0.27400
H820        H  0.00365408  0.08195406  0.06704423     0.08800
H821        H  0.07714470  0.08786279  0.05274545     0.27200
H822        H  0.02562759  0.05867851  0.19396273     0.22000
H823        H  0.96296157  0.07688012  0.10090509     0.27300
H824        H  0.00829123  0.04472095  0.09177654     0.16200
C825        C  0.11255635  0.01789831  0.34423319    -0.11100
C826        C  0.10715735  0.00351471  0.35304452     0.15400
C827        C  0.10112638  0.00120411  0.38534269     0.02300
C828        C  0.09958518  0.01351507  0.40706772    -0.15500
C829        C  0.10363636  0.02823151  0.39711360    -0.10300
C830        C  0.11106267  0.03020914  0.36602158     0.09100
C831        C  0.10698605  0.99137334  0.32756757     0.10100
S832        S  0.09428020  0.98306152  0.39964385    -0.24600
H833        H  0.09412219  0.01171327  0.43099025     0.20300
S834        S  0.11888404  0.04805593  0.35259678    -0.30300
H835        H  0.11764264  0.01960433  0.31987126     0.10700
C836        C  0.09678845  0.99197703  0.30050113     0.03900
C837        C  0.09515531  0.97929029  0.27986153    -0.12600
C838        C  0.10330874  0.96587124  0.28592621    -0.08300
C839        C  0.11442245  0.96577591  0.31145180     0.07300
C840        C  0.11608104  0.97849087  0.33203230    -0.13400
S841        S  0.08472442  0.00830775  0.29407156    -0.30300
H842        H  0.08662899  0.97948524  0.26043371     0.11600
S843        S  0.12661942  0.94979551  0.31955904    -0.27400
H844        H  0.12413878  0.97815964  0.35244416     0.08800
H845        H  0.12347659  0.05249274  0.38480382     0.27200
H846        H  0.07819086  0.00347557  0.26386200     0.22000
H847        H  0.12792122  0.94555758  0.28579449     0.27300
H848        H  0.08813075  0.97846128  0.36890072     0.16200
C849        C  0.14436550  0.14169497  0.03441491    -0.11100
C850        C  0.13776407  0.12869363  0.04808701     0.15400
C851        C  0.13878649  0.12601373  0.08282158     0.02300
C852        C  0.14695750  0.13610235  0.10285580    -0.15500
C853        C  0.15381038  0.14899706  0.08901965    -0.10300
C854        C  0.15199006  0.15205761  0.05456769     0.09100
C855        C  0.13006991  0.11807141  0.02535388     0.10100
S856        S  0.12994436  0.11001430  0.10305043    -0.24600
H857        H  0.14805025  0.13382444  0.12934472     0.20300
S858        S  0.15760134  0.17052845  0.53757711    -0.30300
H859        H  0.14251125  0.14476820  0.51227251     0.10700
C860        C  0.11620401  0.12186673  0.01000893     0.03900
C861        C  0.10743054  0.11154495  0.50092827    -0.12600
C862        C  0.11495939  0.09648262  0.98612427    -0.08300
C863        C  0.12941764  0.09315879  0.99942870     0.07300
C864        C  0.13673903  0.10392477  0.01921473    -0.13400
S865        S  0.10515455  0.13819949  0.53781108    -0.30300
H866        H  0.09561095  0.11345966  0.49492423     0.11600
S867        S  0.13911322  0.07548127  0.99190836    -0.27400
H868        H  0.14764373  0.10122861  0.03019423     0.08800
H869        H  0.15447977  0.17872615  0.06220639     0.27200
H870        H  0.09098593  0.13504235  0.52330616     0.22000
H871        H  0.13273549  0.07307126  0.96014191     0.27300
H872        H  0.11802519  0.10823220  0.08011043     0.16200
C873        C  0.49668727  0.05237088  0.33654493    -0.11100
C874        C  0.49984577  0.06714344  0.32581827     0.15400
C875        C  0.49049639  0.07918752  0.33623754     0.02300
C876        C  0.47907825  0.07640846  0.35956139    -0.15500
C877        C  0.47641117  0.06174829  0.37209862    -0.10300
C878        C  0.48492726  0.04947405  0.35904243     0.09100
C879        C  0.51338079  0.06953929  0.30495689     0.10100
S880        S  0.49285644  0.09838508  0.32164165    -0.24600
H881        H  0.47245051  0.08592032  0.36857997     0.20300
S882        S  0.48206265  0.03003611  0.37113622    -0.30300
H883        H  0.50368937  0.04305559  0.32786278     0.10700
C884        C  0.52670812  0.07602262  0.31811258     0.03900
C885        C  0.53986026  0.07638210  0.29842707    -0.12600
C886        C  0.53988359  0.07026426  0.26610138    -0.08300
C887        C  0.52615710  0.06483575  0.25225411     0.07300
C888        C  0.51316856  0.06425334  0.27206021    -0.13400
S889        S  0.52724553  0.08288739  0.36061748    -0.30300
H890        H  0.55033433  0.08067165  0.30883767     0.11600
S891        S  0.52436931  0.05866776  0.20944359    -0.27400
H892        H  0.50280727  0.05956286  0.26184873     0.08800
H893        H  0.46647510  0.03037141  0.36363362     0.27200
H894        H  0.54266624  0.08692940  0.36089467     0.22000
H895        H  0.53472077  0.06929040  0.19654883     0.27300
H896        H  0.49954860  0.09468204  0.29083195     0.16200
C897        C  0.51412417  0.07335058  0.02853322    -0.11100
C898        C  0.51286923  0.07149291  0.06314847     0.15400
C899        C  0.49834007  0.07064819  0.07800446     0.02300
C900        C  0.48546990  0.07038221  0.05759852    -0.15500
C901        C  0.48681114  0.07112690  0.02274788    -0.10300
C902        C  0.50126587  0.07331840  0.00820694     0.09100
C903        C  0.52692337  0.06944288  0.08264941     0.10100
S904        S  0.49547401  0.06911950  0.12253714    -0.24600
H905        H  0.47441176  0.06882557  0.06891450     0.20300
S906        S  0.50645608  0.07326058  0.46401711    -0.30300
H907        H  0.52524081  0.07437820  0.01718924     0.10700
C908        C  0.53114372  0.05510864  0.09503953     0.03900
C909        C  0.54404334  0.05379317  0.11527328    -0.12600
C910        C  0.55287818  0.06653216  0.12312730    -0.08300
C911        C  0.54928652  0.08067173  0.10825853     0.07300
C912        C  0.53627808  0.08195969  0.08834339    -0.13400
S913        S  0.51994430  0.03854659  0.08545816    -0.30300
H914        H  0.54679729  0.04294517  0.12637049     0.11600
S915        S  0.56121296  0.09712174  0.11403531    -0.27400
H916        H  0.53315881  0.09279878  0.07765381     0.08800
H917        H  0.49266435  0.08081068  0.45796841     0.27200
H918        H  0.52956446  0.02790491  0.10083050     0.22000
H919        H  0.55288688  0.10712081  0.09370484     0.27300
H920        H  0.50924109  0.07577809  0.13224887     0.16200
C921        C  0.41652064  0.97009954  0.07415949    -0.11100
C922        C  0.42594541  0.98249905  0.08064596     0.15400
C923        C  0.43465602  0.98281631  0.11013585     0.02300
C924        C  0.43463173  0.97024533  0.13126820    -0.15500
C925        C  0.42608422  0.95727683  0.12368400    -0.10300
C926        C  0.41646087  0.95744319  0.09538532     0.09100
C927        C  0.42773199  0.99422036  0.05473936     0.10100
S928        S  0.44690722  0.99843771  0.12086382    -0.24600
H929        H  0.44205006  0.97030718  0.15283919     0.20300
S930        S  0.40419659  0.94164124  0.08576876    -0.30300
H931        H  0.40970854  0.97012494  0.05166789     0.10700
C932        C  0.44045783  0.99418242  0.03345067     0.03900
C933        C  0.44266692  0.00631886  0.01146416    -0.12600
C934        C  0.43246168  0.01853087  0.01060141    -0.08300
C935        C  0.41920958  0.01802390  0.03051101     0.07300
C936        C  0.41700871  0.00588383  0.05244125    -0.13400
S937        S  0.45414721  0.97892731  0.03519568    -0.30300
H938        H  0.45279570  0.00668923  0.99617135     0.11600
S939        S  0.40473367  0.03245771  0.02908599    -0.27400
H940        H  0.40708723  0.00570784  0.06843550     0.08800
H941        H  0.39821669  0.94747574  0.05584351     0.27200
H942        H  0.46392701  0.98453587  0.01034293     0.22000
H943        H  0.40862945  0.03639743  0.49693393     0.27300
H944        H  0.43831151  0.00977177  0.10504482     0.16200
C945        C  0.23339108  0.14749651  0.23331120    -0.11100
C946        C  0.24625186  0.15661900  0.22936998     0.15400
C947        C  0.24656140  0.16751648  0.20356228     0.02300
C948        C  0.23368065  0.16975047  0.18382213    -0.15500
C949        C  0.22035966  0.16136460  0.18909931    -0.10300
C950        C  0.22054482  0.14958559  0.21322000     0.09100
C951        C  0.25848085  0.15576573  0.25457054     0.10100
S952        S  0.26247036  0.17995537  0.19652007    -0.24600
H953        H  0.23383077  0.17876741  0.16545155     0.20300
S954        S  0.20480694  0.13695499  0.22001351    -0.30300
H955        H  0.23321266  0.13897725  0.25281082     0.10700
C956        C  0.25803100  0.16490799  0.28337794     0.03900
C957        C  0.27073263  0.16553124  0.30438401    -0.12600
C958        C  0.28393947  0.15723747  0.29703525    -0.08300
C959        C  0.28375794  0.14700171  0.26976468     0.07300
C960        C  0.27106558  0.14642588  0.24878900    -0.13400
S961        S  0.24161351  0.17650670  0.29224461    -0.30300
H962        H  0.27072980  0.17332594  0.32525251     0.11600
S963        S  0.29938477  0.13456338  0.26005891    -0.27400
H964        H  0.27121477  0.13908007  0.22711026     0.08800
H965        H  0.20082217  0.13610435  0.18603303     0.27200
H966        H  0.24625328  0.18128481  0.32415279     0.22000
H967        H  0.30371994  0.13236975  0.29354162     0.27300
H968        H  0.27380597  0.16980088  0.20674845     0.16200
C969        C  0.36234601  0.11423321  0.39774909    -0.11100
C970        C  0.37781278  0.11645432  0.39145638     0.15400
C971        C  0.38236949  0.12860699  0.37079215     0.02300
C972        C  0.37149252  0.13888276  0.35906818    -0.15500
C973        C  0.35603586  0.13712710  0.36672847    -0.10300
C974        C  0.35142214  0.12422962  0.38517067     0.09100
C975        C  0.38887378  0.10598785  0.40706639     0.10100
S976        S  0.40186295  0.13180137  0.35894485    -0.24600
H977        H  0.37521090  0.14853371  0.34449715     0.20300
S978        S  0.33182867  0.11959596  0.39283219    -0.30300
H979        H  0.35876466  0.10464788  0.41271251     0.10700
C980        C  0.39878989  0.11083393  0.43246771     0.03900
C981        C  0.40972846  0.10076579  0.44495004    -0.12600
C982        C  0.41070521  0.08575385  0.43331152    -0.08300
C983        C  0.39978622  0.08063098  0.40987525     0.07300
C984        C  0.38926297  0.09086150  0.39659007    -0.13400
S985        S  0.39741769  0.12978890  0.44925310    -0.30300
H986        H  0.41775477  0.10474182  0.46338280     0.11600
S987        S  0.39826222  0.06121307  0.39639033    -0.27400
H988        H  0.38125225  0.08699336  0.37794733     0.08800
H989        H  0.32681296  0.12424946  0.36106661     0.27200
H990        H  0.40859493  0.12811421  0.47403209     0.22000
H991        H  0.40009621  0.05522252  0.42873751     0.27300
H992        H  0.40657776  0.11661081  0.36102092     0.16200
C993        C  0.85809131  0.24567369  0.48228872    -0.11100
C994        C  0.84853794  0.25769406  0.47308191     0.15400
C995        C  0.84015423  0.25674663  0.44328140     0.02300
C996        C  0.84058478  0.24341216  0.42466980    -0.15500
C997        C  0.84950100  0.23093673  0.43451370    -0.10300
C998        C  0.85884507  0.23239580  0.46308624     0.09100
C999        C  0.84612265  0.27030277  0.49667397     0.10100
S1000       S  0.82802854  0.27184740  0.42863785    -0.24600
H1001       H  0.83362754  0.24273837  0.40242503     0.20300
S1002       S  0.87112207  0.21750350  0.47762765    -0.30300
H1003       H  0.86461693  0.24645581  0.50514933     0.10700
C1004       C  0.83308359  0.27076650  0.51700797     0.03900
C1005       C  0.83089306  0.28301553  0.53869945    -0.12600
C1006       C  0.84016149  0.29432496  0.03167185    -0.08300
C1007       C  0.85449294  0.29437914  0.51971847     0.07300
C1008       C  0.85666859  0.28212494  0.49806632    -0.13400
S1009       S  0.81967615  0.25530407  0.51666747    -0.30300
H1010       H  0.82037337  0.28221055  0.04817042     0.11600
S1011       S  0.86580132  0.30981121  0.00634089    -0.27400
H1012       H  0.86654822  0.28185699  0.48195923     0.08800
H1013       H  0.87915689  0.21670596  0.44729334     0.27200
H1014       H  0.80913250  0.26182955  0.53879892     0.22000
H1015       H  0.85502670  0.32108342  0.01391020     0.27300
H1016       H  0.83638069  0.28378943  0.44270516     0.16200
C1017       C  0.85318258  0.23306400  0.24263692    -0.11100
C1018       C  0.84093293  0.24311847  0.24052892     0.15400
C1019       C  0.82760802  0.24020514  0.25901717     0.02300
C1020       C  0.82726918  0.22792538  0.28110841    -0.15500
C1021       C  0.83993244  0.21843278  0.28501206    -0.10300
C1022       C  0.85277094  0.22066803  0.26433432     0.09100
C1023       C  0.84261597  0.25685087  0.21989066     0.10100
S1024       S  0.81103415  0.25221497  0.25711740    -0.24600
H1025       H  0.81734154  0.22629181  0.29666791     0.20300
S1026       S  0.86903156  0.20823264  0.26460166    -0.30300
H1027       H  0.86326307  0.23508475  0.22778108     0.10700
C1028       C  0.84553814  0.27109345  0.23444105     0.03900
C1029       C  0.84596762  0.28402856  0.21409496    -0.12600
C1030       C  0.84353534  0.28290305  0.17957873    -0.08300
C1031       C  0.84151395  0.26846433  0.16490431     0.07300
C1032       C  0.84102118  0.25561719  0.18524013    -0.13400
S1033       S  0.84839500  0.27279584  0.27894864    -0.30300
H1034       H  0.84753849  0.29509748  0.22522441     0.11600
S1035       S  0.83954009  0.26565810  0.12044399    -0.27400
H1036       H  0.83912587  0.24459606  0.17407047     0.08800
H1037       H  0.86070044  0.19500895  0.27153759     0.27200
H1038       H  0.85236248  0.28822789  0.27889844     0.22000
H1039       H  0.84882200  0.27788573  0.11102171     0.27300
H1040       H  0.81348930  0.25792517  0.22481361     0.16200
C1041       C  0.87222510  0.38242471  0.05966819    -0.11100
C1042       C  0.88733212  0.37793751  0.05513394     0.15400
C1043       C  0.89263673  0.36454261  0.07044901     0.02300
C1044       C  0.88240964  0.35525225  0.08740533    -0.15500
C1045       C  0.86701862  0.35915839  0.08998529    -0.10300
C1046       C  0.86205851  0.37329536  0.07734837     0.09100
C1047       C  0.89710147  0.38708435  0.03312886     0.10100
S1048       S  0.91210748  0.35829709  0.06795001    -0.24600
H1049       H  0.88640750  0.34454328  0.09734833     0.20300
S1050       S  0.84304484  0.38037552  0.08310734    -0.30300
H1051       H  0.86827316  0.39296918  0.04880433     0.10700
C1052       C  0.89274230  0.38758582  0.50252849     0.03900
C1053       C  0.90225931  0.39616685  0.48189838    -0.12600
C1054       C  0.91688986  0.40457005  0.99335568    -0.08300
C1055       C  0.91273978  0.40949957  0.02591110     0.07300
C1056       C  0.90269767  0.40085917  0.04499451    -0.13400
S1057       S  0.87559976  0.37941348  0.48570300    -0.30300
H1058       H  0.89911325  0.39821779  0.45615767     0.11600
S1059       S  0.92008545  0.42633089  0.04544816    -0.27400
H1060       H  0.89961421  0.40463612  0.06985398     0.08800
H1061       H  0.84096887  0.37362812  0.11463627     0.27200
H1062       H  0.87719929  0.38511219  0.45307568     0.22000
H1063       H  0.93524272  0.42141619  0.04291240     0.27300
H1064       H  0.91859382  0.37269993  0.06372122     0.16200
C1065       C  0.91592155  0.48353494  0.34769955    -0.11100
C1066       C  0.92461758  0.49626232  0.35575902     0.15400
C1067       C  0.93368514  0.49607751  0.38471277     0.02300
C1068       C  0.93491633  0.48276476  0.40333171    -0.15500
C1069       C  0.92721718  0.46949261  0.39393060    -0.10300
C1070       C  0.91697458  0.47015151  0.36657370     0.09100
C1071       C  0.92525783  0.50902848  0.33194776     0.10100
S1072       S  0.94482121  0.51213893  0.39782681    -0.24600
H1073       H  0.94260028  0.48263225  0.42442667     0.20300
S1074       S  0.90555371  0.45407949  0.35432584    -0.30300
H1075       H  0.90882772  0.48392073  0.32565638     0.10700
C1076       C  0.93779537  0.51083457  0.31051995     0.03900
C1077       C  0.93898379  0.52398741  0.29116282    -0.12600
C1078       C  0.92796934  0.53548923  0.29299892    -0.08300
C1079       C  0.91479120  0.53301773  0.31249702     0.07300
C1080       C  0.91362060  0.51984625  0.33187004    -0.13400
S1081       S  0.95265810  0.49671080  0.30902366    -0.30300
H1082       H  0.94907172  0.52573993  0.27622975     0.11600
S1083       S  0.89917635  0.54619449  0.31399672    -0.27400
H1084       H  0.90380527  0.51822882  0.34776530     0.08800
H1085       H  0.89718644  0.46140007  0.32912785     0.27200
H1086       H  0.96149188  0.50373143  0.28419307     0.22000
H1087       H  0.90093358  0.55121761  0.28085881     0.27300
H1088       H  0.93493419  0.52328219  0.38533056     0.16200
C1089       C  0.83801453  0.72895290  0.22744015    -0.11100
C1090       C  0.82554478  0.73871009  0.22990490     0.15400
C1091       C  0.81202529  0.73523803  0.21261042     0.02300
C1092       C  0.81159229  0.72247763  0.19190701    -0.15500
C1093       C  0.82447385  0.71332146  0.18751335    -0.10300
C1094       C  0.83755556  0.71619770  0.20688149     0.09100
C1095       C  0.82722543  0.75257246  0.25005517     0.10100
S1096       S  0.79521733  0.74692892  0.21448490    -0.24600
H1097       H  0.80150378  0.72039217  0.17718065     0.20300
S1098       S  0.85405173  0.70409832  0.20637298    -0.30300
H1099       H  0.84824536  0.73139851  0.24141147     0.10700
C1100       C  0.82061752  0.75386499  0.28184171     0.03900
C1101       C  0.82204907  0.76748860  0.29941344    -0.12600
C1102       C  0.82999027  0.77991350  0.28590552    -0.08300
C1103       C  0.83695148  0.77834848  0.25421512     0.07300
C1104       C  0.83561400  0.76465618  0.23687819    -0.13400
S1105       S  0.81044159  0.73813466  0.30002662    -0.30300
H1106       H  0.81684335  0.76847769  0.32381033     0.11600
S1107       S  0.84706634  0.79342737  0.23371341    -0.27400
H1108       H  0.84076477  0.76354487  0.21240489     0.08800
H1109       H  0.84598371  0.69070623  0.19956816     0.27200
H1110       H  0.80679113  0.74522883  0.33045155     0.22000
H1111       H  0.83555523  0.80421197  0.23894630     0.27300
H1112       H  0.80251807  0.76072976  0.22114032     0.16200
C1113       C  0.84040163  0.78206347  0.47727818    -0.11100
C1114       C  0.82810205  0.77217591  0.48091122     0.15400
C1115       C  0.81451357  0.77508249  0.46335597     0.02300
C1116       C  0.81388799  0.78721401  0.44089958    -0.15500
C1117       C  0.82654599  0.79649481  0.43545906    -0.10300
C1118       C  0.83973372  0.79424932  0.45496242     0.09100
C1119       C  0.82776334  0.75660439  0.00022189     0.10100
S1120       S  0.79798048  0.76310890  0.46635005    -0.24600
H1121       H  0.80375442  0.78879419  0.42598656     0.20300
S1122       S  0.85614585  0.80635474  0.45207576    -0.30300
H1123       H  0.85073990  0.78000215  0.49119603     0.10700
C1124       C  0.83392546  0.74440604  0.48630924     0.03900
C1125       C  0.83145584  0.72936473  0.00371191    -0.12600
C1126       C  0.83030166  0.72998045  0.03864241    -0.08300
C1127       C  0.82842169  0.74421121  0.05449080     0.07300
C1128       C  0.82720213  0.75734069  0.03510993    -0.13400
S1129       S  0.83757978  0.74331583  0.44196650    -0.30300
H1130       H  0.83693409  0.72043526  0.49447160     0.11600
S1131       S  0.82764328  0.74643145  0.09927511    -0.27400
H1132       H  0.82564346  0.76820709  0.04725926     0.08800
H1133       H  0.84797087  0.81950506  0.44359514     0.27200
H1134       H  0.84009630  0.72758522  0.44063822     0.22000
H1135       H  0.83792465  0.73465373  0.10634659     0.27300
H1136       H  0.80106552  0.75677752  0.49778125     0.16200
C1137       C  0.88491828  0.64891443  0.14815197    -0.11100
C1138       C  0.88081798  0.63369697  0.15240870     0.15400
C1139       C  0.86633137  0.62885113  0.14192120     0.02300
C1140       C  0.85608701  0.63941776  0.12871869    -0.15500
C1141       C  0.86006903  0.65473670  0.12506183    -0.10300
C1142       C  0.87470966  0.65947788  0.13495689     0.09100
C1143       C  0.89131035  0.62360066  0.17090329     0.10100
S1144       S  0.86024340  0.60939563  0.14497292    -0.24600
H1145       H  0.84491236  0.63564317  0.12119986     0.20300
S1146       S  0.88063188  0.67901326  0.13428618    -0.30300
H1147       H  0.89592699  0.65273421  0.15669645     0.10700
C1148       C  0.90544117  0.61924771  0.15751238     0.03900
C1149       C  0.91523689  0.61021655  0.17666648    -0.12600
C1150       C  0.91123403  0.60548940  0.20901215    -0.08300
C1151       C  0.89688457  0.60951699  0.22195770     0.07300
C1152       C  0.88718936  0.61868031  0.20299122    -0.13400
S1153       S  0.91087704  0.62493948  0.11584081    -0.30300
H1154       H  0.92617633  0.60698197  0.16661624     0.11600
S1155       S  0.89000795  0.60277671  0.26167136    -0.27400
H1156       H  0.87626928  0.62192083  0.21320130     0.08800
H1157       H  0.86683672  0.68469657  0.14676669     0.27200
H1158       H  0.92536544  0.61824492  0.11601422     0.22000
H1159       H  0.89698787  0.58846083  0.25952893     0.27300
H1160       H  0.87476736  0.60293876  0.14191497     0.16200
C1161       C  0.67806863  0.23814636  0.99148510    -0.11100
C1162       C  0.68944795  0.24103171  0.96783978     0.15400
C1163       C  0.70111064  0.23033866  0.96280824     0.02300
C1164       C  0.70176288  0.21755361  0.98312856    -0.15500
C1165       C  0.69087959  0.21499800  0.00804018    -0.10300
C1166       C  0.67870663  0.22527009  0.01181978     0.09100
C1167       C  0.68796755  0.25682395  0.45209064     0.10100
S1168       S  0.71691174  0.23667794  0.43816131    -0.24600
H1169       H  0.71108042  0.20970427  0.97994785     0.20300
S1170       S  0.66454076  0.22339048  0.04400527    -0.30300
H1171       H  0.66913127  0.24640474  0.99538449     0.10700
C1172       C  0.67840059  0.25930081  0.42456389     0.03900
C1173       C  0.68003677  0.27261967  0.40586742    -0.12600
C1174       C  0.69115433  0.28345586  0.41398686    -0.08300
C1175       C  0.69980313  0.28145161  0.44337294     0.07300
C1176       C  0.69820956  0.26811867  0.46186690    -0.13400
S1177       S  0.66499988  0.24499378  0.41166293    -0.30300
H1178       H  0.67319044  0.27415808  0.38370899     0.11600
S1179       S  0.71303111  0.29534575  0.45865492    -0.27400
H1180       H  0.70910975  0.26328700  0.97979775     0.08800
H1181       H  0.67486930  0.21941685  0.06930867     0.27200
H1182       H  0.65926981  0.25280476  0.38375087     0.22000
H1183       H  0.70405225  0.30786800  0.44945935     0.27300
H1184       H  0.70795187  0.24359198  0.41341061     0.16200
C1185       C  0.69858956  0.25327585  0.25225198    -0.11100
C1186       C  0.69851885  0.25581162  0.21776721     0.15400
C1187       C  0.69746060  0.27080825  0.20545843     0.02300
C1188       C  0.69700026  0.28293285  0.22810560    -0.15500
C1189       C  0.69736966  0.28033337  0.26267938    -0.10300
C1190       C  0.69786997  0.26528743  0.27475023     0.09100
C1191       C  0.69938670  0.24237775  0.19587300     0.10100
S1192       S  0.69684236  0.27524297  0.16146616    -0.24600
H1193       H  0.69663778  0.29444729  0.21871914     0.20300
S1194       S  0.69723804  0.26059426  0.31860930    -0.30300
H1195       H  0.69914599  0.24177747  0.26173080     0.10700
C1196       C  0.71279943  0.23849370  0.17879172     0.03900
C1197       C  0.71318601  0.22525572  0.15945847    -0.12600
C1198       C  0.70051799  0.21566438  0.15740978    -0.08300
C1199       C  0.68735012  0.21919930  0.17611697     0.07300
C1200       C  0.68690110  0.23260873  0.19478703    -0.13400
S1201       S  0.72950608  0.25019424  0.18222550    -0.30300
H1202       H  0.72330212  0.22252578  0.14533886     0.11600
S1203       S  0.67130832  0.20648023  0.17780976    -0.27400
H1204       H  0.67683102  0.23549600  0.20893971     0.08800
H1205       H  0.68728145  0.27241401  0.32729832     0.27200
H1206       H  0.73921169  0.24079833  0.16350151     0.22000
H1207       H  0.66344787  0.21392209  0.20364926     0.27300
H1208       H  0.69070256  0.26139088  0.15078958     0.16200
C1209       C  0.75363251  0.35121475  0.25328720    -0.11100
C1210       C  0.76569650  0.34091334  0.25149791     0.15400
C1211       C  0.76625780  0.32855570  0.27397963     0.02300
C1212       C  0.75418625  0.32626485  0.29609431    -0.15500
C1213       C  0.74148480  0.33587208  0.29602703    -0.10300
C1214       C  0.74162058  0.34892664  0.27552741     0.09100
C1215       C  0.77667124  0.34251243  0.22396611     0.10100
S1216       S  0.78131334  0.31458776  0.27459387    -0.24600
H1217       H  0.75423726  0.31624394  0.31175255     0.20300
S1218       S  0.72673947  0.36294895  0.27621534    -0.30300
H1219       H  0.75334814  0.36084213  0.23648354     0.10700
C1220       C  0.77392335  0.33567516  0.19278651     0.03900
C1221       C  0.78548076  0.33535127  0.16880927    -0.12600
C1222       C  0.79977989  0.34158930  0.17561774    -0.08300
C1223       C  0.80189693  0.34984126  0.20560875     0.07300
C1224       C  0.79036018  0.35008441  0.22960497    -0.13400
S1225       S  0.75611083  0.32631656  0.18454931    -0.30300
H1226       H  0.78374170  0.32914134  0.14581921     0.11600
S1227       S  0.81908626  0.36000102  0.21506638    -0.27400
H1228       H  0.79225067  0.35572413  0.25327582     0.08800
H1229       H  0.72323378  0.36096442  0.31023926     0.27200
H1230       H  0.75903832  0.32278183  0.15089166     0.22000
H1231       H  0.82238086  0.36364353  0.18160890     0.27300
H1232       H  0.79064713  0.32037527  0.24932631     0.16200
C1233       C  0.63548306  0.39412185  0.41552862    -0.11100
C1234       C  0.63584608  0.37836788  0.41983076     0.15400
C1235       C  0.62530058  0.37145264  0.44159968     0.02300
C1236       C  0.61406110  0.38028948  0.45677122    -0.15500
C1237       C  0.61331675  0.39600244  0.45155349    -0.10300
C1238       C  0.62454897  0.40303001  0.43157120     0.09100
C1239       C  0.64739928  0.36949734  0.40144492     0.10100
S1240       S  0.62546819  0.35144253  0.45096359    -0.24600
H1241       H  0.60569903  0.37478705  0.47246065     0.20300
S1242       S  0.62598588  0.42328355  0.42655511    -0.30300
H1243       H  0.64384548  0.39952062  0.39965534     0.10700
C1244       C  0.64338937  0.35953672  0.37543419     0.03900
C1245       C  0.65462676  0.35056935  0.36040466    -0.12600
C1246       C  0.66987204  0.35148049  0.37050481    -0.08300
C1247       C  0.67393889  0.36232870  0.39502823     0.07300
C1248       C  0.66265859  0.37103036  0.41043042    -0.13400
S1249       S  0.62395814  0.35820507  0.36146587    -0.30300
H1250       H  0.65141501  0.34246343  0.34141829     0.11600
S1251       S  0.69323233  0.36588452  0.40756346    -0.27400
H1252       H  0.66578046  0.37900845  0.42981381     0.08800
H1253       H  0.62205941  0.42662593  0.45983853     0.27200
H1254       H  0.62642591  0.34730259  0.33641765     0.22000
H1255       H  0.69911808  0.36482993  0.37495106     0.27300
H1256       H  0.64105116  0.34911213  0.44566651     0.16200
C1257       C  0.67363309  0.76919164  0.25206173    -0.11100
C1258       C  0.67481314  0.75474045  0.23767979     0.15400
C1259       C  0.67452004  0.75321348  0.20265788     0.02300
C1260       C  0.67406766  0.76620158  0.18280564    -0.15500
C1261       C  0.67360318  0.78075315  0.19702414    -0.10300
C1262       C  0.67287071  0.78221060  0.23209514     0.09100
C1263       C  0.67725466  0.74158348  0.25974839     0.10100
S1264       S  0.67570123  0.73512916  0.18177967    -0.24600
H1265       H  0.67461951  0.76495750  0.15588211     0.20300
S1266       S  0.67257996  0.80030241  0.25273040    -0.30300
H1267       H  0.67380211  0.77034897  0.27900706     0.10700
C1268       C  0.69189486  0.73577342  0.26568083     0.03900
C1269       C  0.69371781  0.72344602  0.28744996    -0.12600
C1270       C  0.68115198  0.71673605  0.30317185    -0.08300
C1271       C  0.66640761  0.72222271  0.29568595     0.07300
C1272       C  0.66468588  0.73476458  0.27474176    -0.13400
S1273       S  0.70826665  0.74436069  0.24627588    -0.30300
H1274       H  0.70500538  0.71931057  0.29296679     0.11600
S1275       S  0.64925575  0.71348999  0.31082212    -0.27400
H1276       H  0.65341727  0.73906506  0.26946269     0.08800
H1277       H  0.66022486  0.80576421  0.23409001     0.27200
H1278       H  0.71905596  0.73401034  0.25855730     0.22000
H1279       H  0.65453185  0.69857319  0.30617938     0.27300
H1280       H  0.66849594  0.72665776  0.20688525     0.16200
C1281       C  0.69308951  0.73134072  0.50139564    -0.11100
C1282       C  0.68021684  0.74061298  0.50018212     0.15400
C1283       C  0.66767574  0.73627950  0.48047215     0.02300
C1284       C  0.66848743  0.72294148  0.46165951    -0.15500
C1285       C  0.68171001  0.71408073  0.46147122    -0.10300
C1286       C  0.69392758  0.71807812  0.48252982     0.09100
C1287       C  0.68027970  0.75466001  0.51999300     0.10100
S1288       S  0.65060430  0.74750277  0.47721113    -0.24600
H1289       H  0.65912850  0.72001978  0.44537000     0.20300
S1290       S  0.71089196  0.70675433  0.48641380    -0.30300
H1291       H  0.70257681  0.73450630  0.51710635     0.10700
C1292       C  0.67333148  0.75455259  0.04905268     0.03900
C1293       C  0.67375645  0.76826178  0.06652441    -0.12600
C1294       C  0.68195132  0.78073502  0.05427894    -0.08300
C1295       C  0.68909831  0.78066410  0.52645012     0.07300
C1296       C  0.68868971  0.76708817  0.50842706    -0.13400
S1297       S  0.66351038  0.73843828  0.06651429    -0.30300
H1298       H  0.66807693  0.76912550  0.09044690     0.11600
S1299       S  0.69942764  0.79631458  0.50868192    -0.27400
H1300       H  0.69478255  0.76624717  0.48497814     0.08800
H1301       H  0.70370862  0.69278780  0.48048146     0.27200
H1302       H  0.65794472  0.74579058  0.09520273     0.22000
H1303       H  0.68936939  0.80755212  0.52019854     0.27300
H1304       H  0.65728252  0.76164623  0.48359271     0.16200
C1305       C  0.74273672  0.65354638  0.47012994    -0.11100
C1306       C  0.75504188  0.66336050  0.46598450     0.15400
C1307       C  0.75544737  0.67315362  0.43817267     0.02300
C1308       C  0.74283314  0.67411495  0.41718770    -0.15500
C1309       C  0.72983672  0.66529374  0.42298435    -0.10300
C1310       C  0.73027769  0.65417200  0.44853277     0.09100
C1311       C  0.76604205  0.66493829  0.49347972     0.10100
S1312       S  0.77113922  0.68570803  0.43003054    -0.24600
H1313       H  0.74286324  0.68252096  0.39745528     0.20300
S1314       S  0.71528801  0.64068029  0.45541002    -0.30300
H1315       H  0.74257930  0.64577633  0.49109843     0.10700
C1316       C  0.76512742  0.67413392  0.01454903     0.03900
C1317       C  0.77640948  0.67634915  0.03859574    -0.12600
C1318       C  0.79039630  0.66880720  0.03631152    -0.08300
C1319       C  0.79266919  0.65802923  0.01059911     0.07300
C1320       C  0.77917425  0.65600011  0.49380380    -0.13400
S1321       S  0.74760984  0.68473677  0.01699919    -0.30300
H1322       H  0.77465963  0.68466876  0.05809855     0.11600
S1323       S  0.80970158  0.64682751  0.00695826    -0.27400
H1324       H  0.78074914  0.64735768  0.47489269     0.08800
H1325       H  0.71179745  0.63907134  0.42129610     0.27200
H1326       H  0.75000136  0.69075156  0.04909513     0.22000
H1327       H  0.81224567  0.64577781  0.04157791     0.27300
H1328       H  0.78242022  0.67598953  0.44251026     0.16200
C1329       C  0.61298308  0.50999314  0.10251331    -0.11100
C1330       C  0.60409386  0.49698715  0.10670757     0.15400
C1331       C  0.59528862  0.49531278  0.13599008     0.02300
C1332       C  0.59491898  0.50703936  0.15941731    -0.15500
C1333       C  0.60291241  0.52056572  0.15413057    -0.10300
C1334       C  0.61262694  0.52171051  0.12608014     0.09100
C1335       C  0.60372426  0.48551528  0.07991864     0.10100
S1336       S  0.58375865  0.47884331  0.14463672    -0.24600
H1337       H  0.58749972  0.50596062  0.18087787     0.20300
S1338       S  0.62491757  0.53769941  0.11911905    -0.30300
H1339       H  0.62006903  0.51109634  0.08052088     0.10700
C1340       C  0.59443144  0.48749393  0.05167194     0.03900
C1341       C  0.59174912  0.47516013  0.03046954    -0.12600
C1342       C  0.59804666  0.46083334  0.03719312    -0.08300
C1343       C  0.60853048  0.45932587  0.06388865     0.07300
C1344       C  0.61121946  0.47172761  0.08490679    -0.13400
S1345       S  0.58489079  0.50532598  0.04437467    -0.30300
H1346       H  0.58246027  0.47565095  0.51252470     0.11600
S1347       S  0.61833279  0.44169937  0.07226959    -0.27400
H1348       H  0.61857582  0.47052248  0.10638666     0.08800
H1349       H  0.62729275  0.54072409  0.15322620     0.27200
H1350       H  0.57786199  0.50122266  0.01418402     0.22000
H1351       H  0.62531650  0.44613379  0.10227770     0.27300
H1352       H  0.58129126  0.47419578  0.11156864     0.16200
C1353       C  0.63938059  0.63140193  0.32516472    -0.11100
C1354       C  0.64747283  0.62160236  0.30408744     0.15400
C1355       C  0.66317950  0.62366755  0.29979222     0.02300
C1356       C  0.67045459  0.63548568  0.31648026    -0.15500
C1357       C  0.66244357  0.64543050  0.33756823    -0.10300
C1358       C  0.64660861  0.64342707  0.34147915     0.09100
C1359       C  0.63906590  0.60990868  0.28538225     0.10100
S1360       S  0.67450858  0.61178912  0.27288615    -0.24600
H1361       H  0.68255730  0.63687681  0.31294614     0.20300
S1362       S  0.63478307  0.65636052  0.36463912    -0.30300
H1363       H  0.62723572  0.62998844  0.32792757     0.10700
C1364       C  0.63479402  0.59618815  0.30053010     0.03900
C1365       C  0.62623631  0.58568922  0.28231103    -0.12600
C1366       C  0.62179922  0.58865148  0.24917510    -0.08300
C1367       C  0.62690460  0.60209993  0.23353808     0.07300
C1368       C  0.63530359  0.61263512  0.25192449    -0.13400
S1369       S  0.64008254  0.59217518  0.34320748    -0.30300
H1370       H  0.62243647  0.57541723  0.29447844     0.11600
S1371       S  0.62339757  0.60638567  0.19022098    -0.27400
H1372       H  0.63894568  0.62306309  0.24009289     0.08800
H1373       H  0.64148607  0.66942835  0.35093778     0.27200
H1374       H  0.63466465  0.57719684  0.34398485     0.22000
H1375       H  0.62495749  0.59130016  0.17934665     0.27300
H1376       H  0.66615612  0.59844654  0.27806760     0.16200
C1377       C  0.18618596  0.72493590  0.44887227    -0.11100
C1378       C  0.19660667  0.73673604  0.44448781     0.15400
C1379       C  0.20850783  0.73507534  0.42113781     0.02300
C1380       C  0.20924808  0.72198861  0.40147994    -0.15500
C1381       C  0.19843529  0.71045123  0.40485643    -0.10300
C1382       C  0.18700635  0.71180387  0.42944839     0.09100
C1383       C  0.19496177  0.75045812  0.46523882     0.10100
S1384       S  0.22271755  0.74944314  0.41434703    -0.24600
H1385       H  0.21793645  0.72110992  0.38240491     0.20300
S1386       S  0.17313604  0.69720142  0.43713900    -0.30300
H1387       H  0.17726366  0.72604389  0.46735817     0.10700
C1388       C  0.18910352  0.76413997  0.45234240     0.03900
C1389       C  0.18920731  0.77638629  0.97632822    -0.12600
C1390       C  0.19347767  0.77533648  0.01001625    -0.08300
C1391       C  0.19767257  0.76106753  0.02332912     0.07300
C1392       C  0.19863745  0.74851762  0.00233253    -0.13400
S1393       S  0.18227672  0.76507000  0.40988426    -0.30300
H1394       H  0.18473761  0.78777513  0.46276053     0.11600
S1395       S  0.20147838  0.75796462  0.06707680    -0.27400
H1396       H  0.20219024  0.73769050  0.01248979     0.08800
H1397       H  0.18253439  0.68504162  0.42763958     0.27200
H1398       H  0.17686570  0.78005764  0.41141259     0.22000
H1399       H  0.19032272  0.76817177  0.07826337     0.27300
H1400       H  0.22268102  0.75527917  0.44699336     0.16200
C1401       C  0.20044582  0.77044840  0.20739518    -0.11100
C1402       C  0.19040876  0.75861731  0.19977368     0.15400
C1403       C  0.18092056  0.75979502  0.17164916     0.02300
C1404       C  0.18186960  0.77258477  0.15139618    -0.15500
C1405       C  0.19250281  0.78408670  0.15770904    -0.10300
C1406       C  0.20155557  0.78320997  0.18675592     0.09100
C1407       C  0.19049734  0.74489795  0.22069287     0.10100
S1408       S  0.16787650  0.74509896  0.15927154    -0.24600
H1409       H  0.17476006  0.77309572  0.12936343     0.20300
S1410       S  0.21440943  0.79800127  0.19923847    -0.30300
H1411       H  0.20757172  0.76962627  0.22937138     0.10700
C1412       C  0.20249746  0.73442480  0.21841347     0.03900
C1413       C  0.20211117  0.72132420  0.23797026    -0.12600
C1414       C  0.18996738  0.71844939  0.25973505    -0.08300
C1415       C  0.17799326  0.72903768  0.26220129     0.07300
C1416       C  0.17828554  0.74207138  0.24227579    -0.13400
S1417       S  0.21810194  0.73753921  0.18991758    -0.30300
H1418       H  0.21130965  0.71320973  0.23626906     0.11600
S1419       S  0.16260328  0.72704319  0.29151368    -0.27400
H1420       H  0.16910180  0.75021227  0.24401600     0.08800
H1421       H  0.20508981  0.80991818  0.18802806     0.27200
H1422       H  0.22621216  0.72425181  0.19761446     0.22000
H1423       H  0.17156010  0.72103730  0.31741305     0.27300
H1424       H  0.17676317  0.73282026  0.17013995     0.16200
C1425       C  0.03631629  0.57465748  0.14328972    -0.11100
C1426       C  0.02722529  0.58767143  0.14471395     0.15400
C1427       C  0.03106529  0.60040684  0.12507911     0.02300
C1428       C  0.04329850  0.59945835  0.10277258    -0.15500
C1429       C  0.05141353  0.58587556  0.09904720    -0.10300
C1430       C  0.04834757  0.57362381  0.12073522     0.09100
C1431       C  0.01306846  0.58694711  0.16442150     0.10100
S1432       S  0.02014871  0.61770020  0.12556125    -0.24600
H1433       H  0.04396702  0.60745044  0.57922088     0.20300
S1434       S  0.05891808  0.55608516  0.11959311    -0.30300
H1435       H  0.03355191  0.56496312  0.15876931     0.10700
C1436       C  0.00052573  0.57871220  0.15249576     0.03900
C1437       C  0.98740206  0.57770160  0.17206057    -0.12600
C1438       C  0.98646392  0.58483744  0.20333728    -0.08300
C1439       C  0.99910319  0.59315284  0.21526192     0.07300
C1440       C  0.01226159  0.59411942  0.19555155    -0.13400
S1441       S  0.00116728  0.56968697  0.11197799    -0.30300
H1442       H  0.97775508  0.57140883  0.16281410     0.11600
S1443       S  0.99904612  0.60183023  0.25619036    -0.27400
H1444       H  0.02206362  0.60026485  0.20449790     0.08800
H1445       H  0.07248331  0.56249815  0.10768171     0.27200
H1446       H  0.98654915  0.56335859  0.11303014     0.22000
H1447       H  0.01356570  0.60835070  0.25436780     0.27300
H1448       H  0.00593583  0.61081875  0.13011014     0.16200
C1449       C  0.01817481  0.57276935  0.40798510    -0.11100
C1450       C  0.00649938  0.58108901  0.42320082     0.15400
C1451       C  0.00905783  0.58795339  0.45444976     0.02300
C1452       C  0.02345229  0.58700684  0.46895435    -0.15500
C1453       C  0.03527612  0.57889122  0.45348181    -0.10300
C1454       C  0.03251639  0.57165445  0.42260714     0.09100
C1455       C  0.99222765  0.58304257  0.40437946     0.10100
S1456       S  0.99441093  0.59786799  0.47709088    -0.24600
H1457       H  0.02531325  0.59233673  0.49298489     0.20300
S1458       S  0.04692891  0.56155207  0.39967051    -0.30300
H1459       H  0.01622361  0.56751501  0.38389934     0.10700
C1460       C  0.98910984  0.59652720  0.38672285     0.03900
C1461       C  0.97724492  0.59676132  0.36333320    -0.12600
C1462       C  0.96860660  0.58371458  0.35720545    -0.08300
C1463       C  0.97084348  0.57074384  0.37742987     0.07300
C1464       C  0.98274892  0.57047736  0.40039165    -0.13400
S1465       S  0.00114999  0.61291927  0.39157874    -0.30300
H1466       H  0.97552962  0.60668393  0.34787644     0.11600
S1467       S  0.95927277  0.55395429  0.37419194    -0.27400
H1468       H  0.98501426  0.56019980  0.41436671     0.08800
H1469       H  0.05846321  0.57211013  0.40645963     0.27200
H1470       H  0.99342818  0.62233217  0.36888016     0.22000
H1471       H  0.94609563  0.56160024  0.36368415     0.27300
H1472       H  0.98229290  0.58922635  0.46462399     0.16200
C1473       C  0.12293091  0.60990866  0.40442440    -0.11100
C1474       C  0.13452060  0.61718647  0.42214264     0.15400
C1475       C  0.13505622  0.61573208  0.45729488     0.02300
C1476       C  0.12411161  0.60695119  0.47372061    -0.15500
C1477       C  0.11237293  0.59976442  0.45610121    -0.10300
C1478       C  0.11181079  0.60139401  0.42088142     0.09100
C1479       C  0.14522964  0.62690515  0.40326980     0.10100
S1480       S  0.14919002  0.62487648  0.48290345    -0.24600
H1481       H  0.12468977  0.60585690  0.50064730     0.20300
S1482       S  0.09678995  0.59373293  0.39549864    -0.30300
H1483       H  0.12232365  0.61121342  0.37753438     0.10700
C1484       C  0.16042016  0.62262640  0.39753625     0.03900
C1485       C  0.17009670  0.63248952  0.38001644    -0.12600
C1486       C  0.16485456  0.64653842  0.36802885    -0.08300
C1487       C  0.14965378  0.65082463  0.37441084     0.07300
C1488       C  0.13998646  0.64086760  0.39124319    -0.13400
S1489       S  0.16739887  0.60458434  0.41231073    -0.30300
H1490       H  0.18176713  0.62924220  0.37553435     0.11600
S1491       S  0.14217822  0.66927275  0.36412488    -0.27400
H1492       H  0.12837158  0.64426080  0.39609886     0.08800
H1493       H  0.08511731  0.59808728  0.41750055     0.27200
H1494       H  0.18207057  0.60583971  0.39879335     0.22000
H1495       H  0.15510608  0.67718217  0.37505039     0.27300
H1496       H  0.15275091  0.63676650  0.46097203     0.16200
C1497       C  0.33328444  0.74660122  0.41080951    -0.11100
C1498       C  0.32236135  0.73554653  0.40325768     0.15400
C1499       C  0.31200370  0.73825922  0.37713252     0.02300
C1500       C  0.31222431  0.75216223  0.36056561    -0.15500
C1501       C  0.32274706  0.76352811  0.36884543    -0.10300
C1502       C  0.33367432  0.76047364  0.39383282     0.09100
C1503       C  0.32085412  0.72226110  0.42566011     0.10100
S1504       S  0.29808924  0.72453728  0.36395470    -0.24600
H1505       H  0.30399214  0.75409470  0.34093264     0.20300
S1506       S  0.34784118  0.77393617  0.40662868    -0.30300
H1507       H  0.34116011  0.74467741  0.43114701     0.10700
C1508       C  0.33295779  0.71213146  0.43125187     0.03900
C1509       C  0.33150017  0.70091705  0.45585548    -0.12600
C1510       C  0.31743446  0.69888143  0.97428834    -0.08300
C1511       C  0.30585943  0.70936908  0.46826620     0.07300
C1512       C  0.30731139  0.72049852  0.44367265    -0.13400
S1513       S  0.35028373  0.71352968  0.40730750    -0.30300
H1514       H  0.34095190  0.69342216  0.46095901     0.11600
S1515       S  0.28944073  0.71034779  0.99814611    -0.27400
H1516       H  0.29805744  0.72839734  0.43975452     0.08800
H1517       H  0.33736643  0.78582998  0.41082682     0.27200
H1518       H  0.35796005  0.70144240  0.42279504     0.22000
H1519       H  0.29846844  0.71039187  0.02708894     0.27300
H1520       H  0.30655255  0.71167982  0.37315769     0.16200
C1521       C  0.32779292  0.76726829  0.17840750    -0.11100
C1522       C  0.31601702  0.75676562  0.17563588     0.15400
C1523       C  0.30251458  0.75890124  0.19418994     0.02300
C1524       C  0.30160944  0.77099105  0.21679502    -0.15500
C1525       C  0.31392720  0.78081413  0.22148966    -0.10300
C1526       C  0.32683244  0.77934928  0.20072671     0.09100
C1527       C  0.31885281  0.74316068  0.15530602     0.10100
S1528       S  0.28637045  0.74632000  0.19204494    -0.24600
H1529       H  0.29165317  0.77205055  0.23252087     0.20300
S1530       S  0.34265176  0.79227202  0.20205850    -0.30300
H1531       H  0.33800824  0.76579040  0.16366860     0.10700
C1532       C  0.31446517  0.74238311  0.12163065     0.03900
C1533       C  0.31685806  0.72890939  0.10389639    -0.12600
C1534       C  0.32374164  0.71627573  0.11913806    -0.08300
C1535       C  0.32871120  0.71739496  0.15257822     0.07300
C1536       C  0.32631498  0.73086154  0.17017997    -0.13400
S1537       S  0.30544121  0.75837343  0.10167067    -0.30300
H1538       H  0.31304719  0.72808510  0.07825662     0.11600
S1539       S  0.33713887  0.70180307  0.17495030    -0.27400
H1540       H  0.32984276  0.73161120  0.19605081     0.08800
H1541       H  0.33391608  0.80503796  0.21076346     0.27200
H1542       H  0.30598361  0.75255431  0.06897691     0.22000
H1543       H  0.32631132  0.69114467  0.16436475     0.27300
H1544       H  0.29209236  0.73554298  0.16961497     0.16200
C1545       C  0.26346118  0.64694827  0.15308638    -0.11100
C1546       C  0.26325022  0.65627503  0.18153716     0.15400
C1547       C  0.27556426  0.66611965  0.18746920     0.02300
C1548       C  0.28761393  0.66654986  0.16492970    -0.15500
C1549       C  0.28752654  0.65781966  0.13563464    -0.10300
C1550       C  0.27546361  0.64761846  0.13008895     0.09100
C1551       C  0.25021608  0.65565408  0.20490487     0.10100
S1552       S  0.27626839  0.67904732  0.22236894    -0.24600
H1553       H  0.29673939  0.67451531  0.16937749     0.20300
S1554       S  0.27497158  0.63492089  0.09488792    -0.30300
H1555       H  0.25420296  0.63913545  0.14877420     0.10700
C1556       C  0.23573758  0.66094600  0.19555350     0.03900
C1557       C  0.22446828  0.66258213  0.22004248    -0.12600
C1558       C  0.22737860  0.65917710  0.25379970    -0.08300
C1559       C  0.24152805  0.65273423  0.26245173     0.07300
C1560       C  0.25276143  0.65110008  0.23800935    -0.13400
S1561       S  0.23195674  0.66691897  0.15316240    -0.30300
H1562       H  0.21365493  0.66749006  0.21315589     0.11600
S1563       S  0.24604927  0.64650852  0.30411987    -0.27400
H1564       H  0.26379272  0.64672095  0.24506631     0.08800
H1565       H  0.29079418  0.63305998  0.09283149     0.27200
H1566       H  0.21641407  0.66996284  0.15747162     0.22000
H1567       H  0.23133838  0.64125224  0.31122437     0.27300
H1568       H  0.26064865  0.68228119  0.22278123     0.16200
C1569       C  0.49767321  0.55475690  0.09147388    -0.11100
C1570       C  0.50657315  0.56793258  0.09008497     0.15400
C1571       C  0.50223009  0.57980099  0.06857354     0.02300
C1572       C  0.48954520  0.57803045  0.04813840    -0.15500
C1573       C  0.48075892  0.56471566  0.04872816    -0.10300
C1574       C  0.48468752  0.55313836  0.07165860     0.09100
C1575       C  0.52061453  0.56868097  0.11032141     0.10100
S1576       S  0.51253054  0.59739137  0.06548971    -0.24600
H1577       H  0.48679706  0.58709829  0.03091891     0.20300
S1578       S  0.47371664  0.53612728  0.07717563    -0.30300
H1579       H  0.50091307  0.54562314  0.10811953     0.10700
C1580       C  0.52011352  0.56793884  0.14544798     0.03900
C1581       C  0.53368767  0.56746468  0.16346089    -0.12600
C1582       C  0.54781066  0.56790018  0.14725150    -0.08300
C1583       C  0.54831110  0.56921132  0.11211694     0.07300
C1584       C  0.53471675  0.56961807  0.09406275    -0.13400
S1585       S  0.50221791  0.56774151  0.16749257    -0.30300
H1586       H  0.53332335  0.56655919  0.19042863     0.11600
S1587       S  0.56579182  0.56935952  0.08878215    -0.27400
H1588       H  0.53512549  0.57014747  0.06703301     0.08800
H1589       H  0.45965888  0.54366563  0.07559769     0.27200
H1590       H  0.50823281  0.56823134  0.20000677     0.22000
H1591       H  0.57275859  0.55785733  0.10769481     0.27300
H1592       H  0.51721887  0.59774376  0.09903932     0.16200
C1593       C  0.54343630  0.57337886  0.34101787    -0.11100
C1594       C  0.53230149  0.56210059  0.34206913     0.15400
C1595       C  0.53403987  0.54896607  0.32228677     0.02300
C1596       C  0.54638308  0.54782789  0.30042222    -0.15500
C1597       C  0.55718779  0.55945372  0.29813495    -0.10300
C1598       C  0.55594205  0.57210684  0.31969681     0.09100
C1599       C  0.51863579  0.56466428  0.36270334     0.10100
S1600       S  0.52062378  0.53355285  0.32294471    -0.24600
H1601       H  0.54719758  0.53806507  0.28410062     0.20300
S1602       S  0.56990894  0.58698064  0.32135752    -0.30300
H1603       H  0.54226632  0.58333644  0.35665868     0.10700
C1604       C  0.51907957  0.56328458  0.39770263     0.03900
C1605       C  0.50558211  0.56455731  0.41594569    -0.12600
C1606       C  0.49167390  0.56742171  0.39997506    -0.08300
C1607       C  0.49140158  0.56948449  0.36501002     0.07300
C1608       C  0.50489071  0.56813244  0.34678535    -0.13400
S1609       S  0.53669026  0.55924795  0.41897775    -0.30300
H1610       H  0.50579497  0.56304777  0.44278916     0.11600
S1611       S  0.47417907  0.57287692  0.34201082    -0.27400
H1612       H  0.50461461  0.56931389  0.31984780     0.08800
H1613       H  0.58234873  0.57743136  0.31471225     0.27200
H1614       H  0.53090665  0.56000895  0.45169722     0.22000
H1615       H  0.46556594  0.56210571  0.35963061     0.27300
H1616       H  0.51613767  0.53540094  0.35639916     0.16200
C1617       C  0.40133326  0.61542135  0.98891677    -0.11100
C1618       C  0.38826772  0.60883820  0.00249591     0.15400
C1619       C  0.38742053  0.59296581  0.00583438     0.02300
C1620       C  0.39994348  0.58408777  0.99700929    -0.15500
C1621       C  0.41328074  0.59064678  0.98429909    -0.10300
C1622       C  0.41387429  0.60656602  0.98006601     0.09100
C1623       C  0.37621521  0.61897417  0.01496759     0.10100
S1624       S  0.37086999  0.58339320  0.02183783    -0.24600
H1625       H  0.39922637  0.57190446  0.00002373     0.20300
S1626       S  0.43052780  0.61643617  0.96578098    -0.30300
H1627       H  0.40198427  0.62764022  0.98648650     0.10700
C1628       C  0.37533860  0.62297504  0.04898540     0.03900
C1629       C  0.36428355  0.63338785  0.05949009    -0.12600
C1630       C  0.35406587  0.63978461  0.03659862    -0.08300
C1631       C  0.35508395  0.63576380  0.00243493     0.07300
C1632       C  0.36606130  0.62534144  0.99208340    -0.13400
S1633       S  0.38852177  0.61505358  0.07879282    -0.30300
H1634       H  0.36355242  0.63654048  0.08557442     0.11600
S1635       S  0.33431375  0.62877788  0.49559146    -0.27400
H1636       H  0.36279433  0.61305330  0.48891512     0.08800
H1637       H  0.44054042  0.60822694  0.98634019     0.27200
H1638       H  0.38250828  0.62226360  0.10720674     0.22000
H1639       H  0.34409906  0.65895771  0.98372778     0.27300
H1640       H  0.36021614  0.59442917  0.01232877     0.16200
C1641       C  0.17129366  0.25862416  0.27962437    -0.11100
C1642       C  0.16317144  0.24660989  0.29387345     0.15400
C1643       C  0.15701731  0.24813496  0.32614357     0.02300
C1644       C  0.15950400  0.26151388  0.34388331    -0.15500
C1645       C  0.16813675  0.27339060  0.33023675    -0.10300
C1646       C  0.17391727  0.27194524  0.29749132     0.09100
C1647       C  0.16295802  0.23213456  0.27580886     0.10100
S1648       S  0.14655639  0.23323575  0.34665678    -0.24600
H1649       H  0.15498250  0.26247330  0.36898536     0.20300
S1650       S  0.18435320  0.28677588  0.27699275    -0.30300
H1651       H  0.17602884  0.25740330  0.25475958     0.10700
C1652       C  0.15195783  0.22898227  0.25135844     0.03900
C1653       C  0.15368184  0.21609946  0.23122490    -0.12600
C1654       C  0.16640876  0.20665992  0.23478559    -0.08300
C1655       C  0.17675445  0.20928435  0.26104168     0.07300
C1656       C  0.17495455  0.22203918  0.28116628    -0.13400
S1657       S  0.13627513  0.24181313  0.24474712    -0.30300
H1658       H  0.14581034  0.21407374  0.21097674     0.11600
S1659       S  0.19281733  0.19713165  0.26915364    -0.27400
H1660       H  0.18329492  0.22445116  0.30031170     0.08800
H1661       H  0.19713276  0.28473867  0.29755516     0.27200
H1662       H  0.13006003  0.23421740  0.21708937     0.22000
H1663       H  0.18615192  0.18390003  0.25623653     0.27300
H1664       H  0.14135677  0.22598628  0.31764572     0.16200
C1665       C  0.16011142  0.24809706  0.58295464    -0.11100
C1666       C  0.16723120  0.24932078  0.55184930     0.15400
C1667       C  0.17718570  0.23776761  0.54105479     0.02300
C1668       C  0.17990989  0.22529336  0.56167553    -0.15500
C1669       C  0.17386154  0.22216231  0.08929553    -0.10300
C1670       C  0.16335990  0.23335055  0.09993156     0.09100
C1671       C  0.16562082  0.26347676  0.53267526     0.10100
S1672       S  0.18693650  0.23842142  0.50143125    -0.24600
H1673       H  0.18744237  0.21640838  0.55298150     0.20300
S1674       S  0.15355796  0.23251869  0.13946630    -0.30300
H1675       H  0.15280005  0.25717664  0.59160393     0.10700
C1676       C  0.15330428  0.26600013  0.51096042     0.03900
C1677       C  0.15395225  0.27813183  0.48830943    -0.12600
C1678       C  0.16672444  0.28758101  0.48718461    -0.08300
C1679       C  0.17830095  0.28584237  0.51118318     0.07300
C1680       C  0.17763578  0.27379867  0.53363936    -0.13400
S1681       S  0.13760130  0.25292194  0.50976179    -0.30300
H1682       H  0.14518245  0.27943433  0.46960598     0.11600
S1683       S  0.19468677  0.29804718  0.51293855    -0.27400
H1684       H  0.18695256  0.27196816  0.55081670     0.08800
H1685       H  0.16594499  0.22652129  0.15728153     0.27200
H1686       H  0.12858801  0.26137200  0.48751550     0.22000
H1687       H  0.18767402  0.31070992  0.49816214     0.27300
H1688       H  0.17551286  0.24623591  0.48402510     0.16200
C1689       C  0.03354402  0.40027288  0.05615040    -0.11100
C1690       C  0.03427506  0.41277297  0.03461854     0.15400
C1691       C  0.04716588  0.42219224  0.03515934     0.02300
C1692       C  0.05824952  0.41988010  0.05959099    -0.15500
C1693       C  0.05663487  0.40841966  0.08369716    -0.10300
C1694       C  0.04468630  0.39786317  0.08036060     0.09100
C1695       C  0.02052112  0.41675460  0.01553784     0.10100
S1696       S  0.04949535  0.43804432  0.00721653    -0.24600
H1697       H  0.06744509  0.42796288  0.06155945     0.20300
S1698       S  0.04258816  0.38159410  0.10723432    -0.30300
H1699       H  0.02380964  0.39280072  0.05523290     0.10700
C1700       C  0.01585721  0.40819015  0.98784779     0.03900
C1701       C  0.00176340  0.41124721  0.97313348    -0.12600
C1702       C  0.99214540  0.42267231  0.98570210    -0.08300
C1703       C  0.99703826  0.43136189  0.01335362     0.07300
C1704       C  0.01121982  0.42843014  0.02762242    -0.13400
S1705       S  0.02794194  0.39346193  0.97123165    -0.30300
H1706       H  0.99821766  0.40467526  0.95170350     0.11600
S1707       S  0.98542138  0.44557993  0.03311057    -0.27400
H1708       H  0.01476165  0.43485062  0.04932730     0.08800
H1709       H  0.05817814  0.38005006  0.11392709     0.27200
H1710       H  0.01848273  0.38932674  0.94448668     0.22000
H1711       H  0.97222290  0.43663512  0.03289151     0.27300
H1712       H  0.04042614  0.43223970  0.98137060     0.16200
C1713       C  0.00737294  0.41116480  0.24058172    -0.11100
C1714       C  0.00687204  0.41723573  0.27281360     0.15400
C1715       C  0.01997291  0.42396311  0.28658680     0.02300
C1716       C  0.03330733  0.42442730  0.26777209    -0.15500
C1717       C  0.03391428  0.41837655  0.23540461    -0.10300
C1718       C  0.02071437  0.41172557  0.22154442     0.09100
C1719       C  0.99254025  0.41651592  0.29160307     0.10100
S1720       S  0.02068638  0.43169461  0.32834930    -0.24600
H1721       H  0.04335462  0.42946138  0.27865944     0.20300
S1722       S  0.02036779  0.40464203  0.17914966    -0.30300
H1723       H  0.99719749  0.40615141  0.23029821     0.10700
C1724       C  0.98238857  0.42883225  0.29150403     0.03900
C1725       C  0.97060345  0.42918184  0.31490376    -0.12600
C1726       C  0.96881757  0.41742929  0.33820851    -0.08300
C1727       C  0.97823776  0.40450553  0.33623812     0.07300
C1728       C  0.98993271  0.40411947  0.31267068    -0.13400
S1729       S  0.98544380  0.44476018  0.26396324    -0.30300
H1730       H  0.96335637  0.43907732  0.31655137     0.11600
S1731       S  0.97714485  0.38910709  0.36567329    -0.27400
H1732       H  0.99774969  0.39462827  0.31247061     0.08800
H1733       H  0.00518588  0.39978532  0.17898225     0.27200
H1734       H  0.97377656  0.45397729  0.27675363     0.22000
H1735       H  0.97747578  0.39856727  0.39388118     0.27300
H1736       H  0.00547042  0.43615468  0.33089783     0.16200
C1737       C  0.10146803  0.51819987  0.09144027    -0.11100
C1738       C  0.09110154  0.50649210  0.08557699     0.15400
C1739       C  0.08060765  0.50790137  0.05916195     0.02300
C1740       C  0.08015463  0.52127474  0.04045261    -0.15500
C1741       C  0.09005198  0.53337679  0.04710773    -0.10300
C1742       C  0.10124343  0.53148000  0.07221696     0.09100
C1743       C  0.09094268  0.49319761  0.10811306     0.10100
S1744       S  0.06698093  0.49336780  0.04899638    -0.24600
H1745       H  0.06827518  0.52296730  0.53205599     0.20300
S1746       S  0.11559800  0.54541660  0.08099697    -0.30300
H1747       H  0.10972241  0.51701474  0.11131829     0.10700
C1748       C  0.10120676  0.48114148  0.10399174     0.03900
C1749       C  0.09921383  0.46781907  0.12261547    -0.12600
C1750       C  0.08715082  0.46628893  0.14549202    -0.08300
C1751       C  0.07762446  0.47899014  0.15148447     0.07300
C1752       C  0.07959006  0.49221691  0.13247884    -0.13400
S1753       S  0.11619085  0.48236199  0.07333104    -0.30300
H1754       H  0.10668818  0.45830431  0.11809251     0.11600
S1755       S  0.06286556  0.47869716  0.18289768    -0.27400
H1756       H  0.07201444  0.50175915  0.13587663     0.08800
H1757       H  0.11788885  0.54925827  0.04724548     0.27200
H1758       H  0.12304767  0.46835997  0.08075140     0.22000
H1759       H  0.05655951  0.49298199  0.17574030     0.27300
H1760       H  0.07552155  0.48095595  0.06039099     0.16200
C1761       C  0.12688855  0.37448572  0.24764542    -0.11100
C1762       C  0.12512712  0.37609411  0.28224791     0.15400
C1763       C  0.11493819  0.38698066  0.29495846     0.02300
C1764       C  0.10651980  0.39580625  0.27274533    -0.15500
C1765       C  0.10808188  0.39416380  0.23798305    -0.10300
C1766       C  0.11861674  0.38348568  0.22537209     0.09100
C1767       C  0.13374729  0.36591594  0.30432643     0.10100
S1768       S  0.11162105  0.38981010  0.33904530    -0.24600
H1769       H  0.09842555  0.40385187  0.28282969     0.20300
S1770       S  0.12240175  0.38104860  0.18147423    -0.30300
H1771       H  0.13481474  0.36617324  0.23796019     0.10700
C1772       C  0.12751459  0.35214681  0.31546292     0.03900
C1773       C  0.13611815  0.34273836  0.33629391    -0.12600
C1774       C  0.15089915  0.34675619  0.34566669    -0.08300
C1775       C  0.15705776  0.36065360  0.33470739     0.07300
C1776       C  0.14844337  0.37004496  0.31393441    -0.13400
S1777       S  0.10877754  0.34641596  0.30243272    -0.30300
H1778       H  0.13151986  0.33198796  0.34447806     0.11600
S1779       S  0.17561503  0.36717599  0.34691635    -0.27400
H1780       H  0.15314240  0.38071035  0.30542756     0.08800
H1781       H  0.12191812  0.39663640  0.17414606     0.27200
H1782       H  0.10935499  0.33169864  0.31588950     0.22000
H1783       H  0.17577203  0.35993387  0.37821599     0.27300
H1784       H  0.12565447  0.38444493  0.35060743     0.16200
C1785       C  0.49344839  0.40499740  0.34784499    -0.11100
C1786       C  0.49539632  0.41620644  0.37227121     0.15400
C1787       C  0.48426498  0.42756185  0.37619770     0.02300
C1788       C  0.47217390  0.42825454  0.35376833    -0.15500
C1789       C  0.47064456  0.41753000  0.32811748    -0.10300
C1790       C  0.48116737  0.40548302  0.32584608     0.09100
C1791       C  0.50987336  0.41670761  0.39071912     0.10100
S1792       S  0.48507665  0.44165141  0.40877208    -0.24600
H1793       H  0.46406512  0.43745623  0.35586352     0.20300
S1794       S  0.48039393  0.39122633  0.29371073    -0.30300
H1795       H  0.50199689  0.39626573  0.34476700     0.10700
C1796       C  0.51405820  0.40516005  0.41309592     0.03900
C1797       C  0.52794342  0.40616766  0.42987576    -0.12600
C1798       C  0.53785637  0.41842552  0.42449079    -0.08300
C1799       C  0.53387352  0.42960682  0.40073660     0.07300
C1800       C  0.51986159  0.42874073  0.38456511    -0.13400
S1801       S  0.50140816  0.38953364  0.42153057    -0.30300
H1802       H  0.53084521  0.39757974  0.44810418     0.11600
S1803       S  0.54629038  0.44489098  0.38890716    -0.27400
H1804       H  0.51680314  0.43738335  0.36652865     0.08800
H1805       H  0.47831827  0.40166738  0.26761337     0.27200
H1806       H  0.51166075  0.38093114  0.44065646     0.22000
H1807       H  0.55946231  0.43585838  0.38881917     0.27300
H1808       H  0.49297512  0.43257541  0.43183925     0.16200
C1809       C  0.53183738  0.42882565  0.12276518    -0.11100
C1810       C  0.52011204  0.41829703  0.11877842     0.15400
C1811       C  0.52144146  0.40674308  0.09448953     0.02300
C1812       C  0.53439950  0.40620415  0.07437926    -0.15500
C1813       C  0.54579782  0.41715882  0.07732441    -0.10300
C1814       C  0.54465481  0.42839772  0.10230640     0.09100
C1815       C  0.50644125  0.42016357  0.13942206     0.10100
S1816       S  0.50678839  0.39297273  0.08585693    -0.24600
H1817       H  0.53488131  0.39545390  0.55348523     0.20300
S1818       S  0.55897868  0.44269157  0.10876194    -0.30300
H1819       H  0.53083707  0.43762537  0.14153230     0.10700
C1820       C  0.50425495  0.41154247  0.16851802     0.03900
C1821       C  0.49095099  0.41353550  0.18706012    -0.12600
C1822       C  0.47972656  0.42395534  0.17702378    -0.08300
C1823       C  0.48197272  0.43245981  0.14748801     0.07300
C1824       C  0.49541391  0.43065211  0.12937277    -0.13400
S1825       S  0.51830748  0.39785979  0.18163544    -0.30300
H1826       H  0.48934116  0.40697546  0.20962160     0.11600
S1827       S  0.46790066  0.44510121  0.13049692    -0.27400
H1828       H  0.49712562  0.43715123  0.10670684     0.08800
H1829       H  0.57121385  0.43388557  0.09719335     0.27200
H1830       H  0.51122370  0.39373175  0.21178439     0.22000
H1831       H  0.45571711  0.43516827  0.13638190     0.27300
H1832       H  0.49624704  0.39696258  0.11053682     0.16200
C1833       C  0.42943733  0.49480527  0.30794113    -0.11100
C1834       C  0.42144798  0.49228201  0.33766649     0.15400
C1835       C  0.41330451  0.47868786  0.34172739     0.02300
C1836       C  0.41479387  0.46722715  0.31780305    -0.15500
C1837       C  0.42397693  0.46914611  0.28929016    -0.10300
C1838       C  0.43054226  0.48356410  0.28344586     0.09100
C1839       C  0.42330095  0.50336861  0.36503146     0.10100
S1840       S  0.40157040  0.47499533  0.37772659    -0.24600
H1841       H  0.40931657  0.45645417  0.32249345     0.20300
S1842       S  0.44092436  0.48831399  0.24611535    -0.30300
H1843       H  0.43534271  0.50544678  0.30434448     0.10700
C1844       C  0.43321633  0.50044873  0.39191501     0.03900
C1845       C  0.43648910  0.51205600  0.41473131    -0.12600
C1846       C  0.43020094  0.52658212  0.41091188    -0.08300
C1847       C  0.41941408  0.52908370  0.38529445     0.07300
C1848       C  0.41626852  0.51754486  0.36239767    -0.13400
S1849       S  0.44280618  0.48240148  0.39541582    -0.30300
H1850       H  0.44480224  0.51011111  0.43415617     0.11600
S1851       S  0.40936532  0.54674714  0.38027510    -0.27400
H1852       H  0.40849817  0.51970701  0.34197804     0.08800
H1853       H  0.43076515  0.48081260  0.22467834     0.27200
H1854       H  0.44933965  0.48502425  0.42692357     0.22000
H1855       H  0.40888367  0.55013623  0.41460772     0.27300
H1856       H  0.39831472  0.49024561  0.38495309     0.16200
C1857       C  0.34447947  0.25418805  0.49247110    -0.11100
C1858       C  0.33295488  0.24895612  0.98006193     0.15400
C1859       C  0.31976505  0.25797586  0.98089225     0.02300
C1860       C  0.31963794  0.27118387  0.99991066    -0.15500
C1861       C  0.33245364  0.27582816  0.01799212    -0.10300
C1862       C  0.34580027  0.26693585  0.01677089     0.09100
C1863       C  0.33218795  0.23402139  0.45881858     0.10100
S1864       S  0.30263965  0.25317252  0.95864738    -0.24600
H1865       H  0.30931770  0.27786497  0.00079961     0.20300
S1866       S  0.36237509  0.27183316  0.04097103    -0.30300
H1867       H  0.35508446  0.24819047  0.48896039     0.10700
C1868       C  0.33938094  0.23363246  0.42745940     0.03900
C1869       C  0.33909481  0.22024274  0.40878243    -0.12600
C1870       C  0.33152854  0.20725906  0.42048600    -0.08300
C1871       C  0.32477056  0.20754880  0.45248444     0.07300
C1872       C  0.32516563  0.22092123  0.47127540    -0.13400
S1873       S  0.35288116  0.24942864  0.91629903    -0.30300
H1874       H  0.34408387  0.22016334  0.38405935     0.11600
S1875       S  0.31560846  0.19131296  0.47078010    -0.27400
H1876       H  0.31976838  0.22121310  0.49559588     0.08800
H1877       H  0.37091400  0.25878256  0.03354447     0.27200
H1878       H  0.35757216  0.24283282  0.88602031     0.22000
H1879       H  0.32558296  0.18062997  0.45664253     0.27300
H1880       H  0.30984548  0.24625845  0.93126144     0.16200
C1881       C  0.31282277  0.25852026  0.20424348    -0.11100
C1882       C  0.32681321  0.25167060  0.21138378     0.15400
C1883       C  0.34010444  0.25736568  0.19643083     0.02300
C1884       C  0.33913183  0.26968632  0.17466887    -0.15500
C1885       C  0.32515470  0.27663317  0.16728126    -0.10300
C1886       C  0.31179802  0.27076153  0.18209788     0.09100
C1887       C  0.32713736  0.23817150  0.23323047     0.10100
S1888       S  0.35865073  0.24938860  0.20393399    -0.24600
H1889       H  0.34949030  0.27389181  0.16345106     0.20300
S1890       S  0.29305761  0.27758257  0.17234133    -0.30300
H1891       H  0.30255654  0.25395937  0.21522090     0.10700
C1892       C  0.32382621  0.23925239  0.26754898     0.03900
C1893       C  0.32430065  0.22616425  0.28729007    -0.12600
C1894       C  0.32831869  0.21203464  0.27362207    -0.08300
C1895       C  0.33193544  0.21108340  0.23933714     0.07300
C1896       C  0.33107535  0.22408689  0.21943623    -0.13400
S1897       S  0.31937178  0.25733223  0.28639331    -0.30300
H1898       H  0.32160279  0.22694327  0.31363067     0.11600
S1899       S  0.33681990  0.19351131  0.21928727    -0.27400
H1900       H  0.33358878  0.22326515  0.19299551     0.08800
H1901       H  0.29532370  0.27682375  0.13757023     0.27200
H1902       H  0.31830126  0.25213433  0.31953379     0.22000
H1903       H  0.35003583  0.19159290  0.23850721     0.27300
H1904       H  0.35584027  0.24483500  0.23701599     0.16200
C1905       C  0.25725137  0.33096464  0.52608089    -0.11100
C1906       C  0.25957940  0.33304070  0.49179128     0.15400
C1907       C  0.27465611  0.33734985  0.98824797     0.02300
C1908       C  0.28716329  0.33544581  0.00935374    -0.15500
C1909       C  0.28542501  0.33031829  0.04247669    -0.10300
C1910       C  0.27053455  0.32825122  0.05510734     0.09100
C1911       C  0.24646919  0.33108793  0.46933055     0.10100
S1912       S  0.27816861  0.34326153  0.94580674    -0.24600
H1913       H  0.29839121  0.33732698  0.99919517     0.20300
S1914       S  0.26645023  0.32321141  0.09778295    -0.30300
H1915       H  0.24581033  0.32962015  0.53553846     0.10700
C1916       C  0.24403222  0.31722279  0.45283022     0.03900
C1917       C  0.23074335  0.31517322  0.43430488    -0.12600
C1918       C  0.21959355  0.32654848  0.43269886    -0.08300
C1919       C  0.22227184  0.34061790  0.44856663     0.07300
C1920       C  0.23569404  0.34270246  0.46679120    -0.13400
S1921       S  0.25738788  0.30177775  0.45715150    -0.30300
H1922       H  0.22869771  0.30435869  0.42240466     0.11600
S1923       S  0.20878626  0.35600773  0.44588724    -0.27400
H1924       H  0.23768771  0.35326334  0.47980875     0.08800
H1925       H  0.27709072  0.33339470  0.11120440     0.27200
H1926       H  0.24838673  0.29060600  0.44190790     0.22000
H1927       H  0.21828208  0.36728439  0.45918340     0.27300
H1928       H  0.26433022  0.34499486  0.42791512     0.16200
C1929       C  0.39645712  0.37417712  0.19201832    -0.11100
C1930       C  0.38670685  0.37967679  0.16718971     0.15400
C1931       C  0.38750944  0.39510409  0.15786347     0.02300
C1932       C  0.39824357  0.40453077  0.17312889    -0.15500
C1933       C  0.40788446  0.39905301  0.19836994    -0.10300
C1934       C  0.40707434  0.38356872  0.20740706     0.09100
C1935       C  0.37571571  0.36891703  0.15245478     0.10100
S1936       S  0.37493495  0.40358053  0.12757820    -0.24600
H1937       H  0.39874869  0.41636064  0.16592946     0.20300
S1938       S  0.41968843  0.37481175  0.23715051    -0.30300
H1939       H  0.39594301  0.36232832  0.19910682     0.10700
C1940       C  0.37682317  0.36388556  0.11912162     0.03900
C1941       C  0.36654530  0.35299520  0.10730172    -0.12600
C1942       C  0.35540843  0.34670755  0.12833368    -0.08300
C1943       C  0.35471622  0.35153271  0.16208373     0.07300
C1944       C  0.36463761  0.36271155  0.17343251    -0.13400
S1945       S  0.39174058  0.37073383  0.09211787    -0.30300
H1946       H  0.36731024  0.34923394  0.08162698     0.11600
S1947       S  0.34222980  0.34330814  0.19276945    -0.27400
H1948       H  0.36405062  0.36628907  0.19930697     0.08800
H1949       H  0.43277155  0.38197833  0.22468665     0.27200
H1950       H  0.38720867  0.36290358  0.06321621     0.22000
H1951       H  0.34575772  0.32828286  0.18382708     0.27300
H1952       H  0.36272485  0.39362310  0.13255333     0.16200
O1953       O  0.29654942  0.31826357  0.58262755    -0.57500
C1954       C  0.32359816  0.28978005  0.64030018     0.75100
O1955       O  0.31577621  0.29015332  0.55405963    -0.58700
C1956       C  0.29784846  0.32540204  0.55530276     0.75100
C1957       C  0.34305929  0.33446640  0.61247977     0.77500
Cd1958     Cd  0.32336161  0.31138880  0.58718231     1.37500
O1959       O  0.31274510  0.29917252  0.63770149    -0.57500
O1960       O  0.33010734  0.33192445  0.62485043    -0.56300
C1961       C  0.32821077  0.28817252  0.53895181     0.77400
O1962       O  0.34658504  0.32686117  0.58671758    -0.58700
O1963       O  0.33438728  0.29127969  0.61978657    -0.57200
O1964       O  0.31122190  0.32698656  0.54423441    -0.57200
O1965       O  0.33861613  0.29776957  0.54465664    -0.56300
O1966       O  0.44060461  0.45024721  0.75060086    -0.57500
C1967       C  0.46743974  0.42007056  0.70294503     0.75100
O1968       O  0.45214749  0.40500690  0.79118352    -0.58700
C1969       C  0.42985396  0.45051235  0.77159986     0.75100
C1970       C  0.41905866  0.40468242  0.71809116     0.77500
Cd1971     Cd  0.44237803  0.42262153  0.74791709     1.37500
O1972       O  0.45888445  0.43163351  0.70218902    -0.57500
O1973       O  0.42515129  0.41558883  0.70254202    -0.56300
C1974       C  0.45929533  0.41537749  0.80636114     0.77400
O1975       O  0.42319039  0.40270344  0.74807062    -0.58700
O1976       O  0.46409599  0.40988167  0.72382059    -0.57200
O1977       O  0.42387482  0.43784436  0.77851114    -0.57200
O1978       O  0.45744602  0.42874436  0.79593043    -0.56300
O1979       O  0.07521134  0.44497962  0.67500540    -0.57500
C1980       C  0.04848446  0.41755323  0.70920856     0.75100
O1981       O  0.05902068  0.40269070  0.63541960    -0.58700
C1982       C  0.08542692  0.44746393  0.65349405     0.75100
C1983       C  0.09883290  0.40142488  0.71042313     0.77500
Cd1984     Cd  0.07616871  0.41729494  0.67144830     1.37500
O1985       O  0.05709239  0.42902680  0.70818654    -0.57500
O1986       O  0.09274996  0.41370360  0.71942509    -0.56300
C1987       C  0.06352329  0.40840933  0.60823157     0.77400
O1988       O  0.09481734  0.39643995  0.68215050    -0.58700
O1989       O  0.05296705  0.40595930  0.69349861    -0.57200
O1990       O  0.09197086  0.43582800  0.64173852    -0.57200
O1991       O  0.07514507  0.41675838  0.60987307    -0.56300
O1992       O  0.20398942  0.31592737  0.90222019    -0.57500
C1993       C  0.17331063  0.28939539  0.85726964     0.75100
O1994       O  0.15988188  0.30748640  0.95069842    -0.58700
C1995       C  0.20493717  0.32559679  0.92553722     0.75100
C1996       C  0.16004525  0.33811465  0.86956592     0.77500
Cd1997     Cd  0.17642082  0.31433642  0.90246413     1.37500
O1998       O  0.18503277  0.29765185  0.85671927    -0.57500
O1999       O  0.17348555  0.33458091  0.86175030    -0.56300
C2000       C  0.16967106  0.29837944  0.96246068     0.77400
O2001       O  0.15426873  0.33109268  0.89407421    -0.58700
O2002       O  0.16309170  0.29313190  0.87779583    -0.57200
O2003       O  0.19254279  0.33107707  0.93621222    -0.57200
O2004       O  0.18215657  0.29736403  0.94722391    -0.56300
O2005       O  0.44199369  0.53403486  0.95960410    -0.57500
C2006       C  0.47060099  0.56566811  0.52140722     0.75100
O2007       O  0.46650602  0.57346255  0.91931709    -0.58700
C2008       C  0.43668825  0.53556117  0.93030817     0.75100
C2009       C  0.42779536  0.58399807  0.48112487     0.77500
Cd2010     Cd  0.45109592  0.56055028  0.96303455     1.37500
O2011       O  0.46504608  0.55310727  0.51198775    -0.57500
O2012       O  0.42963889  0.57121025  0.49497582    -0.56300
C2013       C  0.47703603  0.56364196  0.92062222     0.77400
O2014       O  0.43595654  0.58362391  0.95418633    -0.58700
O2015       O  0.46634577  0.57728171  0.50533949    -0.57200
O2016       O  0.43765735  0.54859466  0.91737827    -0.57200
O2017       O  0.47524856  0.55276878  0.94073690    -0.56300
O2018       O  0.29520828  0.66313898  0.58148505    -0.57500
C2019       C  0.31853384  0.68970302  0.50473416     0.75100
O2020       O  0.33119278  0.69373371  0.60745237    -0.58700
C2021       C  0.29836829  0.66187755  0.61235115     0.75100
C2022       C  0.34217316  0.65255252  0.55373184     0.77500
Cd2023     Cd  0.31992912  0.67521676  0.56802944     1.37500
O2024       O  0.30689247  0.68294309  0.51612140    -0.57500
O2025       O  0.32845481  0.65116429  0.54496872    -0.56300
C2026       C  0.32073083  0.70344533  0.60284542     0.77400
O2027       O  0.34535190  0.66418578  0.57102165    -0.58700
O2028       O  0.33069743  0.68833394  0.52119087    -0.57200
O2029       O  0.31163056  0.66554505  0.62118644    -0.57200
O2030       O  0.31062143  0.70015597  0.58173149    -0.56300
O2031       O  0.07825340  0.54921226  0.00549516    -0.57500
C2032       C  0.04986091  0.58252381  0.96624263     0.75100
O2033       O  0.07013293  0.59286743  0.05772434    -0.58700
C2034       C  0.08679505  0.54820003  0.03090217     0.75100
C2035       C  0.09944278  0.59334988  0.97339869     0.77500
Cd2036     Cd  0.07580882  0.57703028  0.00754294     1.37500
O2037       O  0.05777061  0.57065021  0.96204239    -0.57500
O2038       O  0.09334167  0.58162682  0.96126071    -0.56300
C2039       C  0.06188334  0.58309495  0.57205819     0.77400
O2040       O  0.09527372  0.59708519  0.00259020    -0.58700
O2041       O  0.05427609  0.59168981  0.98839709    -0.57200
O2042       O  0.09304116  0.55813770  0.54388209    -0.57200
O2043       O  0.05805197  0.57177893  0.05103842    -0.56300
O2044       O  0.21933978  0.66876401  0.80945654    -0.57500
C2045       C  0.19731694  0.69917487  0.87907456     0.75100
O2046       O  0.18031220  0.69745067  0.78326854    -0.58700
C2047       C  0.21563877  0.66454671  0.78023842     0.75100
C2048       C  0.17408213  0.65868226  0.84855494     0.77500
Cd2049     Cd  0.19458592  0.68051122  0.82162477     1.37500
O2050       O  0.20895131  0.69254945  0.86726420    -0.57500
O2051       O  0.18785720  0.65920735  0.85751432    -0.56300
C2052       C  0.19159922  0.70619597  0.77899681     0.77400
O2053       O  0.17014763  0.66746776  0.82495039    -0.58700
O2054       O  0.18472614  0.69644180  0.86529358    -0.57200
O2055       O  0.20193203  0.66658850  0.77187438    -0.57200
O2056       O  0.20374351  0.70275502  0.79390469    -0.56300
O2057       O  0.59465992  0.53049691  0.70677365    -0.57500
C2058       C  0.56799942  0.55690424  0.77166975     0.75100
O2059       O  0.60088614  0.58086005  0.71228973    -0.58700
C2060       C  0.59861716  0.53194901  0.67646838     0.75100
C2061       C  0.56188816  0.56476816  0.66923284     0.77500
Cd2062     Cd  0.58640741  0.55721813  0.71263806     1.37500
O2063       O  0.57296939  0.54460102  0.75935292    -0.57500
O2064       O  0.56115033  0.55470851  0.69160058    -0.56300
C2065       C  0.61078168  0.57650044  0.73310097     0.77400
O2066       O  0.57436779  0.57178924  0.66643434    -0.58700
O2067       O  0.57231420  0.56901603  0.75776021    -0.57200
O2068       O  0.59755807  0.54508582  0.66411358    -0.57200
O2069       O  0.60977207  0.56290717  0.74303592    -0.56300
O2070       O  0.69615168  0.69505783  0.82852638    -0.57500
C2071       C  0.71622835  0.66824975  0.90357317     0.75100
O2072       O  0.67313030  0.69226260  0.92505988    -0.58700
C2073       C  0.68407663  0.70288800  0.82748850     0.75100
C2074       C  0.67161127  0.65595128  0.85231938     0.77500
Cd2075     Cd  0.68850010  0.68086219  0.87929264     1.37500
O2076       O  0.71591264  0.67664109  0.87781512    -0.57500
O2077       O  0.68388433  0.66073219  0.83988457    -0.56300
C2078       C  0.68384844  0.70082474  0.93465969     0.77400
O2079       O  0.66733276  0.66227508  0.87920651    -0.58700
O2080       O  0.70352501  0.66489914  0.91637818    -0.57200
O2081       O  0.67454819  0.70045890  0.85040863    -0.57200
O2082       O  0.69633951  0.69962508  0.91940643    -0.56300
O2083       O  0.70855002  0.30199661  0.88907306    -0.57500
C2084       C  0.72845196  0.33050899  0.81812991     0.75100
O2085       O  0.68991676  0.30510968  0.78730175    -0.58700
C2086       C  0.69556556  0.29606827  0.89308954     0.75100
C2087       C  0.68165110  0.34074583  0.86089070     0.77500
Cd2088     Cd  0.70097734  0.31648949  0.83941130     1.37500
O2089       O  0.72817225  0.32216288  0.84390580    -0.57500
O2090       O  0.69344183  0.33690721  0.87679491    -0.56300
C2091       C  0.69787701  0.29314535  0.78973939     0.77400
O2092       O  0.67902795  0.33356147  0.83401676    -0.58700
O2093       O  0.71592970  0.33290171  0.80365783    -0.57200
O2094       O  0.68514642  0.30055723  0.87371410    -0.57200
O2095       O  0.70726186  0.29261783  0.81348227    -0.56300
O2096       O  0.55822454  0.43157733  0.95116232    -0.57500
C2097       C  0.59164764  0.44751419  0.01956934     0.75100
O2098       O  0.56402637  0.40530637  0.53762218    -0.58700
C2099       C  0.55182317  0.41885982  0.94680285     0.75100
C2100       C  0.60081158  0.40500290  0.96732928     0.77500
Cd2101     Cd  0.57598203  0.42194238  0.99360679     1.37500
O2102       O  0.58353660  0.44883453  0.99345268    -0.57500
O2103       O  0.59571970  0.41675272  0.95301553    -0.56300
C2104       C  0.55666665  0.41625653  0.55034304     0.77400
O2105       O  0.59403286  0.40075667  0.99370550    -0.58700
O2106       O  0.59257769  0.43372824  0.53156611    -0.57200
O2107       O  0.55738018  0.40773618  0.96253872    -0.57200
O2108       O  0.55884093  0.43089533  0.03563376    -0.56300
O2109       O  0.79938414  0.68124159  0.59072067    -0.57500
C2110       C  0.82382067  0.70555951  0.65947370     0.75100
O2111       O  0.85079385  0.67808595  0.59580560    -0.58700
C2112       C  0.80145381  0.67584009  0.56174533     0.75100
C2113       C  0.82967170  0.71743510  0.55888326     0.77500
Cd2114     Cd  0.82560463  0.69016192  0.59729323     1.37500
O2115       O  0.81201626  0.69976028  0.64668122    -0.57500
O2116       O  0.81950085  0.71587401  0.58076958    -0.56300
C2117       C  0.84732981  0.66726632  0.61520615     0.77400
O2118       O  0.83806962  0.70599663  0.55345792    -0.58700
O2119       O  0.83624828  0.70316850  0.64460799    -0.57200
O2120       O  0.81479874  0.67644914  0.55020412    -0.57200
O2121       O  0.83361334  0.66658135  0.62449268    -0.56300
O2122       O  0.96275861  0.57354698  0.71659437    -0.57500
C2123       C  0.93342160  0.55172412  0.77984141     0.75100
O2124       O  0.95271268  0.59817426  0.80749237    -0.58700
C2125       C  0.97189228  0.58436627  0.72173121     0.75100
C2126       C  0.92112934  0.59717316  0.72778820     0.77500
Cd2127     Cd  0.94496293  0.58086475  0.76161730     1.37500
O2128       O  0.94363424  0.55315624  0.75774501    -0.57500
O2129       O  0.92930093  0.58737677  0.71340568    -0.56300
C2130       C  0.95897606  0.58771782  0.82439682     0.77400
O2131       O  0.92380746  0.59945218  0.75847703    -0.58700
O2132       O  0.92771556  0.56386643  0.79106426    -0.57200
O2133       O  0.96830584  0.59366815  0.74439408    -0.57200
O2134       O  0.95786450  0.57441646  0.81305479    -0.56300
O2135       O  0.82783755  0.30999988  0.58030426    -0.57500
C2136       C  0.81527441  0.33548526  0.66681731     0.75100
O2137       O  0.85215019  0.30576009  0.67343384    -0.58700
C2138       C  0.84049574  0.30515986  0.56938593     0.75100
C2139       C  0.85865388  0.34551113  0.61166851     0.77500
Cd2140     Cd  0.83926613  0.32145535  0.63047599     1.37500
O2141       O  0.81339544  0.33113701  0.63686868    -0.57500
O2142       O  0.84495859  0.34491866  0.60230906    -0.56300
C2143       C  0.84334187  0.29457840  0.66868738     0.77400
O2144       O  0.86322130  0.33527289  0.63158763    -0.58700
O2145       O  0.82842617  0.33389391  0.67897328    -0.57200
O2146       O  0.85221657  0.30879218  0.58565238    -0.57200
O2147       O  0.83277518  0.29633557  0.64776895    -0.56300
O2148       O  0.96687810  0.43519287  0.46725078    -0.57500
C2149       C  0.93564085  0.45662094  0.91103502     0.75100
O2150       O  0.95443190  0.41231136  0.88342815    -0.58700
C2151       C  0.97352649  0.42242841  0.46639142     0.75100
C2152       C  0.92541171  0.41117396  0.47150767     0.77500
Cd2153     Cd  0.94958524  0.42890343  0.93214496     1.37500
O2154       O  0.94502394  0.45619189  0.93504829    -0.57500
O2155       O  0.93241477  0.42276486  0.48175999    -0.56300
C2156       C  0.96315535  0.42195869  0.86984072     0.77400
O2157       O  0.93144696  0.40822949  0.94299096    -0.58700
O2158       O  0.93182662  0.44396272  0.89880429    -0.57200
O2159       O  0.96726136  0.41215817  0.44931364    -0.57200
O2160       O  0.96464489  0.43458499  0.88430100    -0.56300
O2161       O  0.31690797  0.18857989  0.89455235    -0.57500
C2162       C  0.29790970  0.16293760  0.81468199     0.75100
O2163       O  0.33613064  0.18887372  0.79341535    -0.58700
C2164       C  0.32922684  0.19592742  0.89725717     0.75100
C2165       C  0.34482911  0.15164056  0.85940998     0.77500
Cd2166     Cd  0.32481598  0.17595766  0.84236307     1.37500
O2167       O  0.29780698  0.16898788  0.84344645    -0.57500
O2168       O  0.33249943  0.15388138  0.87488571    -0.56300
C2169       C  0.32737873  0.20027258  0.79575277     0.77400
O2170       O  0.34775021  0.16053634  0.83535298    -0.58700
O2171       O  0.31063205  0.16207183  0.80016912    -0.57200
O2172       O  0.33951100  0.19296391  0.87618771    -0.57200
O2173       O  0.31768541  0.19998157  0.81899697    -0.56300
O2174       O  0.46120988  0.04793103  0.91190243    -0.57500
C2175       C  0.43703696  0.03224219  0.99217533     0.75100
O2176       O  0.46030051  0.07242157  0.00869337    -0.58700
C2177       C  0.46547161  0.06055969  0.90005027     0.75100
C2178       C  0.42311769  0.07737253  0.94150108     0.77500
Cd2179     Cd  0.44851909  0.05905273  0.96052592     1.37500
O2180       O  0.44402715  0.03152642  0.96457185    -0.57500
O2181       O  0.42606120  0.06483624  0.92766006    -0.56300
C2182       C  0.47562338  0.06656020  0.50317310     0.77400
O2183       O  0.43188841  0.08124609  0.96508662    -0.58700
O2184       O  0.43697611  0.04501540  0.50667295    -0.57200
O2185       O  0.46087320  0.07227375  0.91529452    -0.57200
O2186       O  0.47475738  0.05875517  0.97745804    -0.56300
O2187       O  0.18754457  0.20250626  0.61110499    -0.57500
C2188       C  0.20606996  0.16861059  0.67492474     0.75100
O2189       O  0.16144723  0.19128120  0.69642698    -0.58700
C2190       C  0.17520456  0.20994749  0.61233129     0.75100
C2191       C  0.16290799  0.16097531  0.61365025     0.77500
Cd2192     Cd  0.17896688  0.18311655  0.65164071     1.37500
O2193       O  0.20644933  0.17823727  0.65131992    -0.57500
O2194       O  0.17411866  0.16820509  0.60213742    -0.56300
C2195       C  0.17168243  0.19877009  0.71138871     0.77400
O2196       O  0.15948603  0.16334530  0.64400442    -0.58700
O2197       O  0.19305158  0.16517753  0.68586425    -0.57200
O2198       O  0.16485810  0.20462457  0.63069071    -0.57200
O2199       O  0.18496628  0.19810734  0.69962358    -0.56300
O2200       O  0.07097353  0.05240965  0.50018875    -0.57500
C2201       C  0.09789461  0.03760725  0.92601002     0.75100
O2202       O  0.06813520  0.07492728  0.91038765    -0.58700
C2203       C  0.06590773  0.06461650  0.51279258     0.75100
C2204       C  0.10508402  0.08683797  0.47312965     0.77500
Cd2205     Cd  0.08258397  0.06277671  0.95601119     1.37500
O2206       O  0.09316697  0.03693353  0.95591348    -0.57500
O2207       O  0.10609610  0.07296795  0.48092504    -0.56300
C2208       C  0.05685061  0.06614860  0.91373002     0.77400
O2209       O  0.09512203  0.08737580  0.95064767    -0.58700
O2210       O  0.09607003  0.05010923  0.91106363    -0.57200
O2211       O  0.06940237  0.07678573  0.49810946    -0.57200
O2212       O  0.05808773  0.05558346  0.93485610    -0.56300
O2213       O  0.45428109  0.92809460  0.72482927    -0.57500
C2214       C  0.42906541  0.94319961  0.64412905     0.75100
O2215       O  0.45483594  0.90146005  0.63372881    -0.58700
C2216       C  0.46229169  0.91643833  0.73058646     0.75100
C2217       C  0.41642028  0.89886565  0.69668918     0.77500
Cd2218     Cd  0.44149711  0.91714800  0.67585549     1.37500
O2219       O  0.43449993  0.94396419  0.67343567    -0.57500
O2220       O  0.41907717  0.91171003  0.70944179    -0.56300
C2221       C  0.46355735  0.91219451  0.62502490     0.77400
O2222       O  0.42527318  0.89463911  0.67355189    -0.58700
O2223       O  0.42803729  0.93010624  0.63147533    -0.57200
O2224       O  0.46017764  0.90516329  0.71175064    -0.57200
O2225       O  0.46164455  0.92484011  0.63917753    -0.56300
O2226       O  0.29283334  0.81698324  0.83300641    -0.57500
C2227       C  0.31249075  0.79192945  0.75212624     0.75100
O2228       O  0.34274022  0.81689489  0.81449139    -0.58700
C2229       C  0.29734343  0.82081923  0.86189610     0.75100
C2230       C  0.32067869  0.77742169  0.85065239     0.77500
Cd2231     Cd  0.31724366  0.80565312  0.81582539     1.37500
O2232       O  0.30137696  0.79812549  0.76706791    -0.57500
O2233       O  0.30848920  0.78155126  0.83677987    -0.56300
C2234       C  0.33915582  0.82765971  0.79499282     0.77400
O2235       O  0.33173824  0.78656191  0.84853591    -0.58700
O2236       O  0.32526749  0.79275098  0.76622576    -0.57200
O2237       O  0.31117255  0.81837442  0.86845366    -0.57200
O2238       O  0.32525727  0.82877870  0.78733958    -0.56300
O2239       O  0.06677499  0.93529405  0.70685160    -0.57500
C2240       C  0.09636609  0.94857069  0.77890493     0.75100
O2241       O  0.07137651  0.90665332  0.79592851    -0.58700
C2242       C  0.05867878  0.92383471  0.70030542     0.75100
C2243       C  0.10499660  0.90504802  0.71874482     0.77500
Cd2244     Cd  0.08193488  0.92276859  0.75023394     1.37500
O2245       O  0.08825918  0.94958504  0.75286414    -0.57500
O2246       O  0.10227874  0.91863424  0.71071561    -0.56300
C2247       C  0.06244154  0.91707817  0.80555275     0.77400
O2248       O  0.09761123  0.89980032  0.74336121    -0.58700
O2249       O  0.09884802  0.93534386  0.78998035    -0.57200
O2250       O  0.06179684  0.91177658  0.71592493    -0.57200
O2251       O  0.06319021  0.92955935  0.79026964    -0.56300
O2252       O  0.20790358  0.80328347  0.62082707    -0.57500
C2253       C  0.22234190  0.83064731  0.53739433     0.75100
O2254       O  0.18537895  0.80121280  0.52415930    -0.58700
C2255       C  0.19552524  0.79638614  0.62661295     0.75100
C2256       C  0.17838135  0.83884864  0.59402035     0.77500
Cd2257     Cd  0.19792457  0.81567653  0.57006599     1.37500
O2258       O  0.22432328  0.82429450  0.56554193    -0.57500
O2259       O  0.19177554  0.83719170  0.60478295    -0.56300
C2260       C  0.19502983  0.79050230  0.52577766     0.77400
O2261       O  0.17419943  0.83013682  0.57050819    -0.58700
O2262       O  0.20892072  0.83092245  0.52617495    -0.57200
O2263       O  0.18453043  0.79926637  0.60735163    -0.57200
O2264       O  0.20598129  0.79226305  0.54571717    -0.56300
O2265       O  0.72899587  0.17389677  0.57710514    -0.57500
C2266       C  0.70196826  0.20312521  0.63608092     0.75100
O2267       O  0.68464287  0.19412568  0.54243946    -0.58700
C2268       C  0.72762637  0.16851719  0.54787723     0.75100
C2269       C  0.68308600  0.15756282  0.60691569     0.77500
Cd2270     Cd  0.70211364  0.18150113  0.58221818     1.37500
O2271       O  0.71389652  0.19554344  0.62993239    -0.57500
O2272       O  0.69575360  0.16063334  0.62004266    -0.56300
C2273       C  0.69453114  0.20366115  0.53313307     0.77400
O2274       O  0.67967280  0.16504380  0.58095921    -0.58700
O2275       O  0.69059115  0.20027648  0.61807258    -0.57200
O2276       O  0.71429762  0.16775673  0.53633174    -0.57200
O2277       O  0.70764800  0.20231347  0.54548045    -0.56300
O2278       O  0.59182765  0.03701639  0.71994202    -0.57500
C2279       C  0.56593441  0.06441256  0.65265773     0.75100
O2280       O  0.56650974  0.07680003  0.75463957    -0.58700
C2281       C  0.59576375  0.03850187  0.75021425     0.75100
C2282       C  0.60629071  0.08385822  0.69710470     0.77500
Cd2283     Cd  0.58260705  0.06324572  0.71358854     1.37500
O2284       O  0.57205791  0.05204592  0.66189007    -0.57500
O2285       O  0.60530834  0.07089111  0.68372514    -0.56300
C2286       C  0.55545845  0.06774999  0.75085693     0.77400
O2287       O  0.59680474  0.08690324  0.71997806    -0.58700
O2288       O  0.56859229  0.07595189  0.67036782    -0.57200
O2289       O  0.59446415  0.05168184  0.76236085    -0.57200
O2290       O  0.55749612  0.05663719  0.73149716    -0.56300
O2291       O  0.69404191  0.80228546  0.58445712    -0.57500
C2292       C  0.70716131  0.83009956  0.66717618     0.75100
O2293       O  0.65970064  0.83266409  0.62207229    -0.58700
C2294       C  0.68185207  0.79499659  0.57908010     0.75100
C2295       C  0.67654342  0.79329759  0.67766868     0.77500
Cd2296     Cd  0.68265022  0.81690542  0.63081161     1.37500
O2297       O  0.70925365  0.82483792  0.63800387    -0.57500
O2298       O  0.68736039  0.79296976  0.65695898    -0.56300
C2299       C  0.66560432  0.84066902  0.59913807     0.77400
O2300       O  0.66822087  0.80510270  0.67776776    -0.58700
O2301       O  0.69364086  0.83031482  0.67784808    -0.57200
O2302       O  0.67025467  0.79888138  0.59562292    -0.57200
O2303       O  0.67942338  0.83804415  0.59274584    -0.56300
O2304       O  0.58445418  0.95156076  0.92947291    -0.57500
C2305       C  0.55404938  0.91771336  0.47473431     0.75100
O2306       O  0.56495473  0.91118464  0.87927974    -0.58700
C2307       C  0.59205947  0.95139165  0.90253279     0.75100
C2308       C  0.60065736  0.90555466  0.45076305     0.77500
Cd2309     Cd  0.57731495  0.92474886  0.92672747     1.37500
O2310       O  0.56004606  0.93075087  0.47182993    -0.57500
O2311       O  0.59667440  0.91814427  0.46316648    -0.56300
C2312       C  0.55423110  0.92083622  0.87761668     0.77400
O2313       O  0.59570244  0.90352462  0.92756653    -0.58700
O2314       O  0.55956038  0.90727476  0.45682783    -0.57200
O2315       O  0.59332515  0.93872665  0.88785827    -0.57200
O2316       O  0.55521692  0.93225559  0.89651036    -0.56300
O2317       O  0.94323165  0.96123090  0.98319226    -0.57500
C2318       C  0.97123664  0.92613651  0.94935272     0.75100
O2319       O  0.95675008  0.92214033  0.04400844    -0.58700
C2320       C  0.93443683  0.96286255  0.00805586     0.75100
C2321       C  0.92260693  0.91550186  0.96665000     0.77500
Cd2322     Cd  0.94666273  0.93393211  0.99196853     1.37500
O2323       O  0.96370786  0.93820738  0.94427847    -0.57500
O2324       O  0.92818583  0.92638828  0.95012052    -0.56300
C2325       C  0.96655019  0.93255430  0.04789975     0.77400
O2326       O  0.92771681  0.91351613  0.99598426    -0.58700
O2327       O  0.96650676  0.91739323  0.97206581    -0.57200
O2328       O  0.93178861  0.94809061  0.52537521    -0.57200
O2329       O  0.96590722  0.94359566  0.02786512    -0.56300
O2330       O  0.79741489  0.83166767  0.83829487    -0.57500
C2331       C  0.82409739  0.80558302  0.90684103     0.75100
O2332       O  0.83707271  0.80683675  0.80464419    -0.58700
C2333       C  0.79909834  0.83403340  0.80722782     0.75100
C2334       C  0.84377729  0.84663622  0.86657007     0.77500
Cd2335     Cd  0.82369527  0.82279120  0.84647800     1.37500
O2336       O  0.81230613  0.81307165  0.89891757    -0.57500
O2337       O  0.83004598  0.84614779  0.87571000    -0.56300
C2338       C  0.82726446  0.79632181  0.80674961     0.77400
O2339       O  0.84788770  0.83681970  0.84520604    -0.58700
O2340       O  0.83535712  0.80662662  0.88743165    -0.57200
O2341       O  0.81239996  0.83281207  0.79560245    -0.57200
O2342       O  0.81643817  0.79837607  0.82697053    -0.56300
O2343       O  0.94138966  0.04384501  0.69398886    -0.57500
C2344       C  0.96640213  0.06902903  0.76444013     0.75100
O2345       O  0.96545011  0.08255363  0.66042907    -0.58700
C2346       C  0.93518775  0.04676518  0.66615488     0.75100
C2347       C  0.92633512  0.08970585  0.72587698     0.77500
Cd2348     Cd  0.94982201  0.06991143  0.70410187     1.37500
O2349       O  0.95963423  0.05723118  0.75402079    -0.57500
O2350       O  0.92772338  0.07630870  0.73674071    -0.56300
C2351       C  0.97636200  0.07325278  0.66389581     0.77400
O2352       O  0.93574709  0.09388941  0.70366707    -0.58700
O2353       O  0.96445138  0.08112316  0.74799891    -0.57200
O2354       O  0.93510567  0.06053809  0.65733545    -0.57200
O2355       O  0.97482174  0.06304036  0.68569720    -0.56300
O2356       O  0.81669434  0.17639606  0.88636066    -0.57500
C2357       C  0.83918013  0.20367007  0.81510409     0.75100
O2358       O  0.85704870  0.20322925  0.91474471    -0.58700
C2359       C  0.81964567  0.17204638  0.91586365     0.75100
C2360       C  0.86030379  0.16298268  0.85110320     0.77500
Cd2361     Cd  0.84186997  0.18705121  0.87585970     1.37500
O2362       O  0.82740619  0.19821638  0.82887689    -0.57500
O2363       O  0.84618886  0.16385401  0.84577854    -0.56300
C2364       C  0.84733857  0.21389156  0.91432066     0.77400
O2365       O  0.86597697  0.17308223  0.86989371    -0.58700
O2366       O  0.85176106  0.20067462  0.82870295    -0.57200
O2367       O  0.83307447  0.17407412  0.92611041    -0.57200
O2368       O  0.83542309  0.21148188  0.89762898    -0.56300
C2369       C  0.89313554  0.10552553  0.77531725    -0.11100
C2370       C  0.89640525  0.12103229  0.77444061     0.15400
C2371       C  0.90867138  0.12629011  0.75505357     0.02300
C2372       C  0.91783556  0.11584477  0.73824599    -0.15500
C2373       C  0.91491516  0.10021321  0.73991869    -0.10300
C2374       C  0.90203348  0.09510058  0.75784225     0.09100
C2375       C  0.88697922  0.13134926  0.79464164     0.10100
S2376       S  0.91345210  0.14609167  0.75142898    -0.24600
H2377       H  0.92759366  0.11997255  0.72454616     0.20300
S2378       S  0.89610189  0.07557089  0.75918908    -0.30300
H2379       H  0.88353273  0.10152818  0.78975279     0.10700
C2380       C  0.87197699  0.13469544  0.78537197     0.03900
C2381       C  0.86343064  0.14461032  0.80509089    -0.12600
C2382       C  0.86951812  0.15123917  0.83411353    -0.08300
C2383       C  0.88439809  0.14726419  0.84406629     0.07300
C2384       C  0.89302824  0.13756970  0.82393458    -0.13400
S2385       S  0.86393710  0.12684440  0.74764474    -0.30300
H2386       H  0.85206729  0.14755638  0.79719284     0.11600
S2387       S  0.89285046  0.15363730  0.88250074    -0.27400
H2388       H  0.90448187  0.13464809  0.83138221     0.08800
H2389       H  0.89948224  0.07275314  0.72539079     0.27200
H2390       H  0.84956747  0.13366448  0.75051509     0.22000
H2391       H  0.87950217  0.15188175  0.90139890     0.27300
H2392       H  0.89865402  0.15171100  0.75568575     0.16200
C2393       C  0.91567373  0.98970178  0.56556171    -0.11100
C2394       C  0.92728250  0.00043126  0.56861940     0.15400
C2395       C  0.94063258  0.99882939  0.54942713     0.02300
C2396       C  0.94215964  0.98644259  0.52803337    -0.15500
C2397       C  0.93100032  0.97514346  0.52661918    -0.10300
C2398       C  0.91737509  0.97709282  0.54472248     0.09100
C2399       C  0.92586564  0.01240524  0.59408100     0.10100
S2400       S  0.95664199  0.01145372  0.55311735    -0.24600
H2401       H  0.95282731  0.98670527  0.00932959     0.20300
S2402       S  0.90190244  0.96381029  0.54271591    -0.30300
H2403       H  0.90540021  0.99096687  0.58017293     0.10700
C2404       C  0.92460450  0.02777493  0.58530322     0.03900
C2405       C  0.92647461  0.03883083  0.61002200    -0.12600
C2406       C  0.92944925  0.03479874  0.64345405    -0.08300
C2407       C  0.92886952  0.01930014  0.65255923     0.07300
C2408       C  0.92733362  0.00830522  0.62771005    -0.13400
S2409       S  0.92133875  0.03328006  0.54243906    -0.30300
H2410       H  0.92648940  0.05064602  0.60278302     0.11600
S2411       S  0.93034406  0.01267889  0.69499881    -0.27400
H2412       H  0.92786043  0.99642253  0.63448213     0.08800
H2413       H  0.90482773  0.95916326  0.50971305     0.27200
H2414       H  0.91990096  0.04892617  0.54838531     0.22000
H2415       H  0.92127472  0.02438756  0.70814861     0.27300
H2416       H  0.95523228  0.01394666  0.58765912     0.16200
C2417       C  0.89795112  0.88156507  0.94483259    -0.11100
C2418       C  0.88779875  0.88807554  0.92202818     0.15400
C2419       C  0.88909182  0.90360301  0.91406096     0.02300
C2420       C  0.90054946  0.91220463  0.92900814    -0.15500
C2421       C  0.91073994  0.90572989  0.95194893    -0.10300
C2422       C  0.90953496  0.89011101  0.95939012     0.09100
C2423       C  0.87628602  0.87815874  0.90662305     0.10100
S2424       S  0.87675331  0.91314957  0.88481112    -0.24600
H2425       H  0.90142956  0.92413086  0.92284056     0.20300
S2426       S  0.92297585  0.88014891  0.98525153    -0.30300
H2427       H  0.89711484  0.86958446  0.95053089     0.10700
C2428       C  0.87862153  0.87144326  0.87514443     0.03900
C2429       C  0.86771099  0.86143720  0.86235750    -0.12600
C2430       C  0.85458887  0.85781197  0.88067884    -0.08300
C2431       C  0.85252038  0.86444073  0.91267245     0.07300
C2432       C  0.86323604  0.87467775  0.92491640    -0.13400
S2433       S  0.89569825  0.87532269  0.85175153    -0.30300
H2434       H  0.86947765  0.85631527  0.83809923     0.11600
S2435       S  0.83717075  0.85957116  0.94040797    -0.27400
H2436       H  0.86165325  0.87961388  0.94946780     0.08800
H2437       H  0.93575696  0.88751483  0.97187629     0.27200
H2438       H  0.89262875  0.86552102  0.82490851     0.22000
H2439       H  0.83891259  0.84385559  0.93583014     0.27300
H2440       H  0.86470955  0.90278252  0.88545036     0.16200
C2441       C  0.73309377  0.83596677  0.74162497    -0.11100
C2442       C  0.74578516  0.84255478  0.72646404     0.15400
C2443       C  0.74520245  0.84627292  0.69216271     0.02300
C2444       C  0.73237487  0.84239256  0.67338712    -0.15500
C2445       C  0.71993242  0.83513375  0.68830260    -0.10300
C2446       C  0.72030120  0.83210858  0.72301888     0.09100
C2447       C  0.76019847  0.84238708  0.74542935     0.10100
S2448       S  0.76060884  0.85563385  0.67095742    -0.24600
H2449       H  0.73216772  0.84492393  0.64690567     0.20300
S2450       S  0.70563758  0.82183635  0.74459437    -0.30300
H2451       H  0.73360324  0.83274230  0.76773008     0.10700
C2452       C  0.76195624  0.85020805  0.77591098     0.03900
C2453       C  0.77490347  0.84754623  0.79552607    -0.12600
C2454       C  0.78608355  0.83722070  0.78518956    -0.08300
C2455       C  0.78428722  0.82951129  0.75447168     0.07300
C2456       C  0.77153248  0.83233666  0.73485090    -0.13400
S2457       S  0.74774785  0.86356841  0.78971318    -0.30300
H2458       H  0.77630355  0.85342546  0.81904873     0.11600
S2459       S  0.79706197  0.81488032  0.74025951    -0.27400
H2460       H  0.76998405  0.82595023  0.71198010     0.08800
H2461       H  0.70430641  0.81056843  0.71989533     0.27200
H2462       H  0.75455504  0.86710557  0.82049553     0.22000
H2463       H  0.79881040  0.80815290  0.77186711     0.27300
H2464       H  0.76656807  0.86271375  0.69953753     0.16200
C2465       C  0.63363922  0.86496049  0.56325151    -0.11100
C2466       C  0.64017341  0.86961223  0.53298678     0.15400
C2467       C  0.65546010  0.86601068  0.52634351     0.02300
C2468       C  0.66359377  0.85724634  0.54926673    -0.15500
C2469       C  0.65690423  0.85188072  0.57897331    -0.10300
C2470       C  0.64185828  0.85639016  0.58649493     0.09100
C2471       C  0.63080676  0.87844693  0.50929628     0.10100
S2472       S  0.66141075  0.86598278  0.97957362    -0.24600
H2473       H  0.67515502  0.85415744  0.54307795     0.20300
S2474       S  0.63256322  0.85202085  0.62537618    -0.30300
H2475       H  0.62204085  0.86815449  0.56889699     0.10700
C2476       C  0.61879055  0.87165870  0.49158295     0.03900
C2477       C  0.60967755  0.88060028  0.47067154    -0.12600
C2478       C  0.61232830  0.89619920  0.46725870    -0.08300
C2479       C  0.62492769  0.90275931  0.48355317     0.07300
C2480       C  0.63389185  0.89387633  0.50470219    -0.13400
S2481       S  0.61496326  0.85164964  0.49594124    -0.30300
H2482       H  0.60002805  0.87557944  0.45818998     0.11600
S2483       S  0.63026103  0.92231975  0.47801418    -0.27400
H2484       H  0.64332603  0.89902193  0.51777733     0.08800
H2485       H  0.64537600  0.85531937  0.64499589     0.27200
H2486       H  0.60275054  0.85106001  0.47340559     0.22000
H2487       H  0.62387259  0.92840584  0.96447975     0.27300
H2488       H  0.65613525  0.88088971  0.97519884     0.16200
C2489       C  0.61244926  0.97816141  0.84389136    -0.11100
C2490       C  0.60310376  0.99097494  0.84645398     0.15400
C2491       C  0.59175957  0.99144093  0.87140316     0.02300
C2492       C  0.58952280  0.97882643  0.89192166    -0.15500
C2493       C  0.59796280  0.96548455  0.88736452    -0.10300
C2494       C  0.61013804  0.96550751  0.86433425     0.09100
C2495       C  0.60415882  0.00278084  0.82035696     0.10100
S2496       S  0.57892027  0.00721780  0.87668964    -0.24600
H2497       H  0.58022062  0.97901791  0.90962432     0.20300
S2498       S  0.62301319  0.94976511  0.85963916    -0.30300
H2499       H  0.62132345  0.97786284  0.82515915     0.10700
C2500       C  0.60896210  0.01763050  0.82734389     0.03900
C2501       C  0.60711616  0.02891532  0.80297037    -0.12600
C2502       C  0.60074919  0.02560875  0.77150623    -0.08300
C2503       C  0.59741800  0.01030905  0.76369490     0.07300
C2504       C  0.59897499  0.99918030  0.78828585    -0.13400
S2505       S  0.61689865  0.02228426  0.86761982    -0.30300
H2506       H  0.61005622  0.04049423  0.80902335     0.11600
S2507       S  0.59009722  0.00424271  0.72394137    -0.27400
H2508       H  0.59553946  0.98766112  0.78276765     0.08800
H2509       H  0.62219819  0.94521553  0.89329311     0.27200
H2510       H  0.62053894  0.03742591  0.86017003     0.22000
H2511       H  0.60190420  0.01113326  0.70581841     0.27300
H2512       H  0.57769882  0.01090538  0.84265198     0.16200
C2513       C  0.79407054  0.16424829  0.99001430    -0.11100
C2514       C  0.78210633  0.15648349  0.97458701     0.15400
C2515       C  0.78370696  0.15190282  0.94094230     0.02300
C2516       C  0.79638125  0.15661138  0.92263977    -0.15500
C2517       C  0.80776796  0.16545588  0.93742533    -0.10300
C2518       C  0.80683538  0.16876398  0.97193311     0.09100
C2519       C  0.76714727  0.15668944  0.99157821     0.10100
S2520       S  0.76966357  0.14063177  0.91967132    -0.24600
H2521       H  0.79717382  0.15366178  0.89642240     0.20300
S2522       S  0.82057788  0.18019552  0.99364584    -0.30300
H2523       H  0.79287944  0.16802422  0.01563472     0.10700
C2524       C  0.76728941  0.15519844  0.52635287     0.03900
C2525       C  0.75369111  0.15783933  0.54376281    -0.12600
C2526       C  0.74101468  0.16415964  0.52769201    -0.08300
C2527       C  0.74188075  0.16733740  0.49306913     0.07300
C2528       C  0.75540002  0.16479971  0.97617881    -0.13400
S2529       S  0.78324637  0.14673747  0.54767109    -0.30300
H2530       H  0.75299152  0.15522562  0.57014142     0.11600
S2531       S  0.72668561  0.17601144  0.46976521    -0.27400
H2532       H  0.75702989  0.16935538  0.95128260     0.08800
H2533       H  0.82067509  0.19174730  0.96939743     0.27200
H2534       H  0.77604103  0.14469353  0.57870198     0.22000
H2535       H  0.72396770  0.18733092  0.49373373     0.27300
H2536       H  0.76322420  0.13436220  0.94869426     0.16200
C2537       C  0.66281604  0.13051132  0.66647529    -0.11100
C2538       C  0.65115330  0.12519868  0.64594412     0.15400
C2539       C  0.65018206  0.13023734  0.61257833     0.02300
C2540       C  0.66085342  0.14060717  0.60064812    -0.15500
C2541       C  0.67261606  0.14605289  0.62106299    -0.10300
C2542       C  0.67356483  0.14089228  0.65458056     0.09100
C2543       C  0.64004901  0.11460691  0.66039799     0.10100
S2544       S  0.63554309  0.12423387  0.58391237    -0.24600
H2545       H  0.65992396  0.14445909  0.57502417     0.20300
S2546       S  0.68781551  0.14782984  0.68320795    -0.30300
H2547       H  0.66332854  0.12658905  0.69208715     0.10700
C2548       C  0.64265611  0.09888471  0.66012729     0.03900
C2549       C  0.63156377  0.08914104  0.67293296    -0.12600
C2550       C  0.61785569  0.09481713  0.68583269    -0.08300
C2551       C  0.61530844  0.11066599  0.68589101     0.07300
C2552       C  0.62653642  0.12037340  0.67369180    -0.13400
S2553       S  0.65990335  0.09126546  0.64242779    -0.30300
H2554       H  0.63351955  0.07702868  0.67264371     0.11600
S2555       S  0.59764734  0.11918272  0.69870763    -0.27400
H2556       H  0.62452489  0.13249443  0.67344879     0.08800
H2557       H  0.68346457  0.13920208  0.71115339     0.27200
H2558       H  0.65635119  0.07588052  0.64713289     0.22000
H2559       H  0.58855250  0.10868167  0.68148282     0.27300
H2560       H  0.63045688  0.11137847  0.60116700     0.16200
C2561       C  0.01064438  0.91240244  0.92605761    -0.11100
C2562       C  0.01132797  0.91675018  0.89252611     0.15400
C2563       C  0.99862659  0.92369101  0.87735775     0.02300
C2564       C  0.98566872  0.92654621  0.89642574    -0.15500
C2565       C  0.98504410  0.92252003  0.93024287    -0.10300
C2566       C  0.99775278  0.91539415  0.94522067     0.09100
C2567       C  0.02599736  0.91579820  0.87521366     0.10100
S2568       S  0.99841772  0.92984541  0.83432553    -0.24600
H2569       H  0.97600463  0.93200557  0.88477787     0.20300
S2570       S  0.99886428  0.91112582  0.98918449    -0.30300
H2571       H  0.02053502  0.90741390  0.93781969     0.10700
C2572       C  0.03529607  0.92866438  0.87273201     0.03900
C2573       C  0.04789250  0.92825467  0.85163362    -0.12600
C2574       C  0.05127498  0.91529990  0.83262392    -0.08300
C2575       C  0.04247434  0.90206646  0.83694568     0.07300
C2576       C  0.03004832  0.90238552  0.85872423    -0.13400
S2577       S  0.03062488  0.94586600  0.89503773    -0.30300
H2578       H  0.05473483  0.93834567  0.84864242     0.11600
S2579       S  0.04544536  0.88507186  0.81294277    -0.27400
H2580       H  0.02285099  0.89249401  0.86093295     0.08800
H2581       H  0.99204489  0.92480220  0.99899103     0.27200
H2582       H  0.04332181  0.95430105  0.88476692     0.22000
H2583       H  0.04637686  0.89269313  0.78213013     0.27300
H2584       H  0.00980183  0.92011563  0.82240323     0.16200
C2585       C  0.99241922  0.92045168  0.62391362    -0.11100
C2586       C  0.00585769  0.92820735  0.61610160     0.15400
C2587       C  0.00659693  0.93692547  0.58669382     0.02300
C2588       C  0.99387321  0.93806658  0.56631097    -0.15500
C2589       C  0.98042104  0.93014134  0.57347288    -0.10300
C2590       C  0.97966109  0.92139118  0.60304440     0.09100
C2591       C  0.01902545  0.92705983  0.63874436     0.10100
S2592       S  0.02361725  0.94644585  0.57306992    -0.24600
H2593       H  0.99344831  0.94534339  0.04013004     0.20300
S2594       S  0.96275137  0.91164654  0.61614153    -0.30300
H2595       H  0.99182337  0.91378746  0.64661393     0.10700
C2596       C  0.02414362  0.93964698  0.65719687     0.03900
C2597       C  0.03744265  0.93839031  0.67608979    -0.12600
C2598       C  0.04570374  0.92477972  0.67711819    -0.08300
C2599       C  0.04060766  0.91224096  0.65822338     0.07300
C2600       C  0.02722707  0.91345858  0.63967814    -0.13400
S2601       S  0.01353013  0.95718314  0.65745876    -0.30300
H2602       H  0.04118318  0.94792777  0.69092943     0.11600
S2603       S  0.05100591  0.89468939  0.65526208    -0.27400
H2604       H  0.02345376  0.90390304  0.62488076     0.08800
H2605       H  0.95285949  0.92334888  0.60629752     0.27200
H2606       H  0.02412289  0.96572769  0.67570741     0.22000
H2607       H  0.06538940  0.90156858  0.65539642     0.27300
H2608       H  0.03375573  0.93538546  0.58497103     0.16200
C2609       C  0.16269645  0.87215628  0.64307560    -0.11100
C2610       C  0.14754759  0.86774416  0.64670197     0.15400
C2611       C  0.14238739  0.85437594  0.63115193     0.02300
C2612       C  0.15259749  0.84552303  0.61292435    -0.15500
C2613       C  0.16786945  0.84973925  0.60969025    -0.10300
C2614       C  0.17289031  0.86337675  0.62459072     0.09100
C2615       C  0.13728732  0.87751999  0.66611385     0.10100
S2616       S  0.12313949  0.84763652  0.63478478    -0.24600
H2617       H  0.14866275  0.83500126  0.60201551     0.20300
S2618       S  0.19198790  0.87039094  0.62043235    -0.30300
H2619       H  0.16657014  0.88256334  0.65461701     0.10700
C2620       C  0.13394760  0.87454203  0.69984867     0.03900
C2621       C  0.12338440  0.88371162  0.71657793    -0.12600
C2622       C  0.11610280  0.89576401  0.70008837    -0.08300
C2623       C  0.11953691  0.89858255  0.66604311     0.07300
C2624       C  0.13030034  0.88964734  0.64976667    -0.13400
S2625       S  0.14317966  0.85910804  0.72143473    -0.30300
H2626       H  0.12082235  0.88152122  0.74258197     0.11600
S2627       S  0.10992072  0.91261269  0.64104664    -0.27400
H2628       H  0.13279217  0.89173875  0.62364643     0.08800
H2629       H  0.19382095  0.86545832  0.58724699     0.27200
H2630       H  0.13596709  0.86126399  0.75242686     0.22000
H2631       H  0.09538245  0.90876548  0.65282113     0.27300
H2632       H  0.11613271  0.86187311  0.63764792     0.16200
C2633       C  0.28186280  0.83877441  0.94125443    -0.11100
C2634       C  0.26739613  0.83227350  0.94241538     0.15400
C2635       C  0.26231602  0.82343860  0.91525081     0.02300
C2636       C  0.27193614  0.82095385  0.88801476    -0.15500
C2637       C  0.28677185  0.82670140  0.88759630    -0.10300
C2638       C  0.29155462  0.83617595  0.91410997     0.09100
C2639       C  0.25790160  0.83443100  0.97248086     0.10100
S2640       S  0.24397748  0.81439757  0.91458742    -0.24600
H2641       H  0.26811451  0.81363980  0.86799050     0.20300
S2642       S  0.30973426  0.84545738  0.91464569    -0.30300
H2643       H  0.28567077  0.84578611  0.96180794     0.10700
C2644       C  0.25943882  0.82808761  0.49291485     0.03900
C2645       C  0.24884861  0.82774120  0.51897960    -0.12600
C2646       C  0.23518265  0.83586499  0.51668299    -0.08300
C2647       C  0.23312449  0.84613473  0.48990434     0.07300
C2648       C  0.24523864  0.84399935  0.97070632    -0.13400
S2649       S  0.27598921  0.81601069  0.49457518    -0.30300
H2650       H  0.25056380  0.81997157  0.53956983     0.11600
S2651       S  0.21711858  0.85880994  0.48719038    -0.27400
H2652       H  0.24350129  0.85095054  0.94871777     0.08800
H2653       H  0.31046730  0.84754923  0.87983574     0.27200
H2654       H  0.27411287  0.81123330  0.52784841     0.22000
H2655       H  0.21506038  0.86004965  0.52195501     0.27300
H2656       H  0.24359874  0.81081415  0.94879227     0.16200
C2657       C  0.49871513  0.89860788  0.57952386    -0.11100
C2658       C  0.50092212  0.91066600  0.55722577     0.15400
C2659       C  0.48980991  0.92213153  0.55463058     0.02300
C2660       C  0.47746755  0.92203191  0.57643873    -0.15500
C2661       C  0.47563878  0.91042787  0.60004309    -0.10300
C2662       C  0.48622711  0.89841643  0.60114046     0.09100
C2663       C  0.51528819  0.91157508  0.53841660     0.10100
S2664       S  0.49095283  0.93740292  0.52471576    -0.24600
H2665       H  0.46928644  0.93120361  0.57525219     0.20300
S2666       S  0.48513899  0.88329031  0.63129755    -0.30300
H2667       H  0.50717485  0.88972111  0.58128087     0.10700
C2668       C  0.52622689  0.92270704  0.54581205     0.03900
C2669       C  0.53894979  0.92425751  0.52507838    -0.12600
C2670       C  0.54095640  0.91490483  0.49705730    -0.08300
C2671       C  0.53002775  0.90350697  0.49028339     0.07300
C2672       C  0.51752746  0.90181105  0.51139772    -0.13400
S2673       S  0.52395583  0.93493898  0.58166343    -0.30300
H2674       H  0.54731340  0.93286817  0.53055746     0.11600
S2675       S  0.53050585  0.89157925  0.45374785    -0.27400
H2676       H  0.50902339  0.89334594  0.50566781     0.08800
H2677       H  0.48116880  0.89269511  0.65830258     0.27200
H2678       H  0.53665177  0.94414920  0.57546907     0.22000
H2679       H  0.53334693  0.90362654  0.43162470     0.27300
H2680       H  0.49917997  0.92936047  0.50039270     0.16200
C2681       C  0.52687850  0.91014010  0.80768251    -0.11100
C2682       C  0.51339126  0.91653805  0.81993511     0.15400
C2683       C  0.51331198  0.92350285  0.85157246     0.02300
C2684       C  0.52687125  0.92487418  0.86916019    -0.15500
C2685       C  0.54055820  0.91890284  0.85666731    -0.10300
C2686       C  0.54046871  0.91127513  0.82565010     0.09100
C2687       C  0.49985177  0.91671206  0.79829137     0.10100
S2688       S  0.49631323  0.93090030  0.87080593    -0.24600
H2689       H  0.52664106  0.93045825  0.89326519     0.20300
S2690       S  0.55733798  0.90359596  0.80674773    -0.30300
H2691       H  0.52692481  0.90473762  0.78338045     0.10700
C2692       C  0.49454298  0.93029218  0.78385404     0.03900
C2693       C  0.48171487  0.92996371  0.76330512    -0.12600
C2694       C  0.47418217  0.91631231  0.75651205    -0.08300
C2695       C  0.47931337  0.90278508  0.77186080     0.07300
C2696       C  0.49219115  0.90311496  0.79218957    -0.13400
S2697       S  0.50456394  0.94791678  0.79009277    -0.30300
H2698       H  0.47793911  0.94028999  0.75128230     0.11600
S2699       S  0.46978536  0.88484657  0.76730794    -0.27400
H2700       H  0.49617343  0.89273406  0.80372540     0.08800
H2701       H  0.56660467  0.91590119  0.81569396     0.27200
H2702       H  0.49454758  0.95719389  0.77191035     0.22000
H2703       H  0.45509820  0.89111191  0.76716079     0.27300
H2704       H  0.48622510  0.92074828  0.85545087     0.16200
C2705       C  0.38702721  0.86755806  0.70603853    -0.11100
C2706       C  0.38227626  0.86990068  0.73906609     0.15400
C2707       C  0.38842612  0.88203170  0.75756494     0.02300
C2708       C  0.39902857  0.89159420  0.74247451    -0.15500
C2709       C  0.40401897  0.88917410  0.70952618    -0.10300
C2710       C  0.39769130  0.87708838  0.69097668     0.09100
C2711       C  0.37108839  0.85931481  0.75347984     0.10100
S2712       S  0.38364918  0.88580772  0.80068177    -0.24600
H2713       H  0.40383533  0.90070888  0.75716179     0.20300
S2714       S  0.40236711  0.87337455  0.64791861    -0.30300
H2715       H  0.38225017  0.85828781  0.69176672     0.10700
C2716       C  0.35591197  0.86361662  0.75906559     0.03900
C2717       C  0.34579168  0.85311727  0.77301758    -0.12600
C2718       C  0.35049862  0.83833656  0.78120456    -0.08300
C2719       C  0.36568164  0.83400884  0.77460618     0.07300
C2720       C  0.37579964  0.84457683  0.76125743    -0.13400
S2721       S  0.34938592  0.88234775  0.74778160    -0.30300
H2722       H  0.33414264  0.85642506  0.77752494     0.11600
S2723       S  0.37269018  0.81501368  0.78060456    -0.27400
H2724       H  0.38742189  0.84122111  0.75635622     0.08800
H2725       H  0.40198363  0.88872847  0.63843142     0.27200
H2726       H  0.33438657  0.88062090  0.75911651     0.22000
H2727       H  0.35990526  0.80805336  0.76627532     0.27300
H2728       H  0.37816777  0.87137773  0.80906854     0.16200
C2729       C  0.01559864  0.06547229  0.88792352    -0.11100
C2730       C  0.01675767  0.06908653  0.85402843     0.15400
C2731       C  0.03104436  0.07263503  0.84008500     0.02300
C2732       C  0.04393987  0.07206983  0.86037881    -0.15500
C2733       C  0.04285520  0.06800228  0.89416738    -0.10300
C2734       C  0.02842993  0.06502366  0.90821369     0.09100
C2735       C  0.00288989  0.06845490  0.83379269     0.10100
S2736       S  0.03379038  0.07725107  0.79650952    -0.24600
H2737       H  0.05495068  0.07437493  0.84947691     0.20300
S2738       S  0.02551948  0.06090957  0.95191018    -0.30300
H2739       H  0.00459361  0.06291621  0.89859597     0.10700
C2740       C  0.99899815  0.05525697  0.81615288     0.03900
C2741       C  0.98613958  0.05535040  0.79574994    -0.12600
C2742       C  0.97729453  0.06849405  0.79225501    -0.08300
C2743       C  0.98076509  0.08146905  0.81151122     0.07300
C2744       C  0.99351949  0.08124888  0.83231148    -0.13400
S2745       S  0.01080802  0.03854757  0.81849721    -0.30300
H2746       H  0.98354241  0.04546112  0.78082944     0.11600
S2747       S  0.96902936  0.09828115  0.81004085    -0.27400
H2748       H  0.99647022  0.09115619  0.84686029     0.08800
H2749       H  0.03657454  0.07112826  0.96341451     0.27200
H2750       H  0.00143757  0.02909181  0.79922177     0.22000
H2751       H  0.97871435  0.10768916  0.82867037     0.27300
H2752       H  0.01881060  0.08131858  0.78879811     0.16200
C2753       C  0.04255462  0.07849757  0.58597378    -0.11100
C2754       C  0.03096666  0.06765907  0.58635139     0.15400
C2755       C  0.03210453  0.05480119  0.56549858     0.02300
C2756       C  0.04427214  0.05354506  0.54326680    -0.15500
C2757       C  0.05546265  0.06479419  0.54156392    -0.10300
C2758       C  0.05486823  0.07711798  0.56414456     0.09100
C2759       C  0.01731601  0.07053997  0.60684651     0.10100
S2760       S  0.01807244  0.03995186  0.56512525    -0.24600
H2761       H  0.04458388  0.04407793  0.52604131     0.20300
S2762       S  0.06932297  0.09153519  0.56608940    -0.30300
H2763       H  0.04181898  0.08827000  0.60228955     0.10700
C2764       C  0.01770784  0.06963126  0.64194832     0.03900
C2765       C  0.00419380  0.07129044  0.66002197    -0.12600
C2766       C  0.99030323  0.07376905  0.64370072    -0.08300
C2767       C  0.99001842  0.07496205  0.60856597     0.07300
C2768       C  0.00355381  0.07360056  0.59059016    -0.13400
S2769       S  0.03519342  0.06542307  0.66357383    -0.30300
H2770       H  0.00434296  0.07022206  0.68697193     0.11600
S2771       S  0.97268603  0.07685116  0.58510052    -0.27400
H2772       H  0.00327600  0.07424040  0.56355882     0.08800
H2773       H  0.08134418  0.08188491  0.55691805     0.27200
H2774       H  0.02929659  0.06624027  0.69619078     0.22000
H2775       H  0.96439298  0.06649663  0.60460111     0.27300
H2776       H  0.01403485  0.04128254  0.59898456     0.16200
C2777       C  0.11342058  0.01255537  0.85741460    -0.11100
C2778       C  0.10699330  0.99866874  0.86660923     0.15400
C2779       C  0.10020213  0.99711077  0.89837474     0.02300
C2780       C  0.09893769  0.00980125  0.91907615    -0.15500
C2781       C  0.10388923  0.02412664  0.90838615    -0.10300
C2782       C  0.11210605  0.02525224  0.87808323     0.09100
C2783       C  0.10572498  0.98674319  0.84104209     0.10100
S2784       S  0.09201815  0.97961259  0.91332206    -0.24600
H2785       H  0.09285380  0.00868230  0.94247162     0.20300
S2786       S  0.12082063  0.04256023  0.86388208    -0.30300
H2787       H  0.11891213  0.01366110  0.83330874     0.10700
C2788       C  0.09379789  0.98718483  0.81771045     0.03900
C2789       C  0.09174837  0.97497661  0.79595219    -0.12600
C2790       C  0.10132415  0.96224955  0.79714077    -0.08300
C2791       C  0.11388459  0.96232522  0.81913301     0.07300
C2792       C  0.11585892  0.97450893  0.84111379    -0.13400
S2793       S  0.08050845  0.00281831  0.81731890    -0.30300
H2794       H  0.08207135  0.97496735  0.77933186     0.11600
S2795       S  0.12776829  0.94733463  0.82025964    -0.27400
H2796       H  0.12517595  0.97435263  0.85874015     0.08800
H2797       H  0.12443435  0.04775253  0.89614203     0.27200
H2798       H  0.07191726  0.99791097  0.78979950     0.22000
H2799       H  0.12696570  0.94417100  0.78585521     0.27300
H2800       H  0.08854325  0.97312117  0.88227808     0.16200
C2801       C  0.14424777  0.14257640  0.53863515    -0.11100
C2802       C  0.13842846  0.12932895  0.55288112     0.15400
C2803       C  0.14038996  0.12661113  0.58736797     0.02300
C2804       C  0.14836349  0.13712985  0.60673092    -0.15500
C2805       C  0.15424190  0.15041661  0.59246243    -0.10300
C2806       C  0.15188726  0.15324125  0.55803914     0.09100
C2807       C  0.13011155  0.11880107  0.53100086     0.10100
S2808       S  0.13312903  0.10996877  0.60807189    -0.24600
H2809       H  0.15005502  0.13488659  0.63307643     0.20300
S2810       S  0.15835330  0.16934750  0.03506114    -0.30300
H2811       H  0.14331219  0.14391318  0.00788453     0.10700
C2812       C  0.11499919  0.12176424  0.52176473     0.03900
C2813       C  0.10878023  0.11101912  0.99049340    -0.12600
C2814       C  0.11464710  0.09836862  0.48930453    -0.08300
C2815       C  0.13000836  0.09575595  0.49755634     0.07300
C2816       C  0.13754148  0.10593580  0.51856591    -0.13400
S2817       S  0.10741985  0.14009041  0.01724283    -0.30300
H2818       H  0.09767141  0.11354448  0.98041119     0.11600
S2819       S  0.14067759  0.07993739  0.48138736    -0.27400
H2820       H  0.14928800  0.10388702  0.52512382     0.08800
H2821       H  0.15342969  0.18002505  0.56429857     0.27200
H2822       H  0.09495511  0.13799607  0.99584564     0.22000
H2823       H  0.13273201  0.07905460  0.45098867     0.27300
H2824       H  0.12065528  0.10765463  0.58689060     0.16200
C2825       C  0.49606124  0.05197577  0.83570230    -0.11100
C2826       C  0.50032206  0.06669751  0.82669172     0.15400
C2827       C  0.49171409  0.07911165  0.83803652     0.02300
C2828       C  0.47988654  0.07664227  0.86056494    -0.15500
C2829       C  0.47607027  0.06194220  0.87140170    -0.10300
C2830       C  0.48388559  0.04941697  0.85734787     0.09100
C2831       C  0.51421496  0.06867341  0.80671004     0.10100
S2832       S  0.49560042  0.09836638  0.82558673    -0.24600
H2833       H  0.47387567  0.08640677  0.87031730     0.20300
S2834       S  0.47938857  0.02996252  0.86654511    -0.30300
H2835       H  0.50248025  0.04240141  0.82625067     0.10700
C2836       C  0.52780940  0.07384102  0.82128986     0.03900
C2837       C  0.54106082  0.07431247  0.80194407    -0.12600
C2838       C  0.54092364  0.06963859  0.76847267    -0.08300
C2839       C  0.52703842  0.06536704  0.75349093     0.07300
C2840       C  0.51392516  0.06464847  0.77293816    -0.13400
S2841       S  0.52847277  0.07896652  0.86496179    -0.30300
H2842       H  0.55169070  0.07761334  0.81331108     0.11600
S2843       S  0.52521191  0.06100124  0.70962238    -0.27400
H2844       H  0.50338253  0.06096141  0.76168118     0.08800
H2845       H  0.46379622  0.03191026  0.86034558     0.27200
H2846       H  0.54391232  0.08291973  0.86583460     0.22000
H2847       H  0.53618800  0.07150237  0.69895137     0.27300
H2848       H  0.50158265  0.09478642  0.79399662     0.16200
C2849       C  0.51661691  0.07117000  0.52865838    -0.11100
C2850       C  0.51541333  0.06983466  0.56341315     0.15400
C2851       C  0.50089474  0.06965091  0.57845966     0.02300
C2852       C  0.48795502  0.06955729  0.55823006    -0.15500
C2853       C  0.48919635  0.06984286  0.52332462    -0.10300
C2854       C  0.50368823  0.07130415  0.50848944     0.09100
C2855       C  0.52946333  0.06780197  0.58302398     0.10100
S2856       S  0.49808978  0.06884591  0.62311312    -0.24600
H2857       H  0.47688765  0.06854833  0.56977601     0.20300
S2858       S  0.50408058  0.07593963  0.96390730    -0.30300
H2859       H  0.52772355  0.07170004  0.51711996     0.10700
C2860       C  0.53309056  0.05374563  0.59771569     0.03900
C2861       C  0.54582166  0.05261515  0.61848288    -0.12600
C2862       C  0.55505066  0.06524784  0.62466041    -0.08300
C2863       C  0.55212327  0.07897999  0.60752573     0.07300
C2864       C  0.53928930  0.08011290  0.58701413    -0.13400
S2865       S  0.52134150  0.03732197  0.59046684    -0.30300
H2866       H  0.54811906  0.04206512  0.63134422     0.11600
S2867       S  0.56465815  0.09508509  0.61139414    -0.27400
H2868       H  0.53662642  0.09072174  0.57471617     0.08800
H2869       H  0.49009373  0.08318639  0.95821692     0.27200
H2870       H  0.53002597  0.02702969  0.60930290     0.22000
H2871       H  0.55754848  0.10427066  0.58730922     0.27300
H2872       H  0.51201758  0.07535164  0.63220698     0.16200
C2873       C  0.41781588  0.96927532  0.57285576    -0.11100
C2874       C  0.42621040  0.98215586  0.58125753     0.15400
C2875       C  0.43354237  0.98294231  0.61243822     0.02300
C2876       C  0.43317437  0.97042616  0.63368312    -0.15500
C2877       C  0.42572419  0.95700368  0.62444129    -0.10300
C2878       C  0.41743953  0.95664771  0.59412011     0.09100
C2879       C  0.42844867  0.99396510  0.55580742     0.10100
S2880       S  0.44468322  0.99905775  0.62521297    -0.24600
H2881       H  0.43958497  0.97090857  0.65673460     0.20300
S2882       S  0.40660961  0.94020516  0.58172445    -0.30300
H2883       H  0.41211063  0.96892931  0.54893029     0.10700
C2884       C  0.44122781  0.99368383  0.53469538     0.03900
C2885       C  0.44379900  0.00585419  0.51299890    -0.12600
C2886       C  0.43390093  0.01831712  0.51236723    -0.08300
C2887       C  0.42059831  0.01806926  0.53210438     0.07300
C2888       C  0.41802983  0.00589613  0.55367777    -0.13400
S2889       S  0.45456838  0.97812843  0.53646248    -0.30300
H2890       H  0.45396860  0.00605063  0.49783161     0.11600
S2891       S  0.40650451  0.03288463  0.53090385    -0.27400
H2892       H  0.40806662  0.00589064  0.56953424     0.08800
H2893       H  0.40085221  0.94616712  0.55170470     0.27200
H2894       H  0.46414712  0.98323383  0.51071142     0.22000
H2895       H  0.40677732  0.03591439  0.99506773     0.27300
H2896       H  0.43573683  0.01005530  0.60922442     0.16200
C2897       C  0.23308854  0.14845271  0.73441203    -0.11100
C2898       C  0.24613734  0.15724622  0.73011846     0.15400
C2899       C  0.24660755  0.16812535  0.70433118     0.02300
C2900       C  0.23368313  0.17074981  0.68501433    -0.15500
C2901       C  0.22016099  0.16273877  0.69069019    -0.10300
C2902       C  0.22018672  0.15090313  0.71473592     0.09100
C2903       C  0.25826198  0.15644703  0.75546766     0.10100
S2904       S  0.26283826  0.18010129  0.69706490    -0.24600
H2905       H  0.23399568  0.17977577  0.66667645     0.20300
S2906       S  0.20414117  0.13876600  0.72234848    -0.30300
H2907       H  0.23278074  0.13998725  0.75402268     0.10700
C2908       C  0.25786490  0.16599735  0.78361086     0.03900
C2909       C  0.27058748  0.16689012  0.80441754    -0.12600
C2910       C  0.28374586  0.15845145  0.79754621    -0.08300
C2911       C  0.28351073  0.14780628  0.77106454     0.07300
C2912       C  0.27078803  0.14696463  0.75023843    -0.13400
S2913       S  0.24148766  0.17776803  0.79179998    -0.30300
H2914       H  0.27063621  0.17498367  0.82472773     0.11600
S2915       S  0.29909545  0.13518783  0.76220090    -0.27400
H2916       H  0.27088596  0.13933075  0.72904434     0.08800
H2917       H  0.20034798  0.13738983  0.68834398     0.27200
H2918       H  0.24642380  0.18345378  0.82274953     0.22000
H2919       H  0.30350899  0.13353944  0.79578405     0.27300
H2920       H  0.27383571  0.16919039  0.70515125     0.16200
C2921       C  0.36189881  0.11624095  0.89848466    -0.11100
C2922       C  0.37740599  0.11922623  0.89476229     0.15400
C2923       C  0.38210099  0.13233625  0.87742588     0.02300
C2924       C  0.37119169  0.14247663  0.86548581    -0.15500
C2925       C  0.35563294  0.13972761  0.86983206    -0.10300
C2926       C  0.35097562  0.12621134  0.88585406     0.09100
C2927       C  0.38838822  0.10823762  0.90841317     0.10100
S2928       S  0.40177079  0.13694419  0.87007088    -0.24600
H2929       H  0.37492435  0.15275205  0.85316806     0.20300
S2930       S  0.33138580  0.12070220  0.88988954    -0.30300
H2931       H  0.35829557  0.10598425  0.91107388     0.10700
C2932       C  0.39718296  0.11152188  0.93678390     0.03900
C2933       C  0.40813099  0.10106468  0.94742281    -0.12600
C2934       C  0.41042409  0.08727077  0.93045283    -0.08300
C2935       C  0.40104438  0.08385309  0.90263466     0.07300
C2936       C  0.39027508  0.09440445  0.89191892    -0.13400
S2937       S  0.39440175  0.12897794  0.95954522    -0.30300
H2938       H  0.41501959  0.10375658  0.96897204     0.11600
S2939       S  0.40222111  0.06650534  0.87908993    -0.27400
H2940       H  0.38337582  0.09188853  0.87022324     0.08800
H2941       H  0.32711909  0.12610291  0.85817070     0.27200
H2942       H  0.40711455  0.12752986  0.98051407     0.22000
H2943       H  0.40013851  0.05730813  0.90745253     0.27300
H2944       H  0.40740825  0.12205030  0.87047115     0.16200
C2945       C  0.85757531  0.24459641  0.97768595    -0.11100
C2946       C  0.84794093  0.25630654  0.96699002     0.15400
C2947       C  0.83970996  0.25459346  0.93713236     0.02300
C2948       C  0.84037519  0.24085400  0.92001841    -0.15500
C2949       C  0.84927018  0.22866862  0.93156524    -0.10300
C2950       C  0.85850663  0.23088176  0.96004729     0.09100
C2951       C  0.84518644  0.26932591  0.98935111     0.10100
S2952       S  0.82733263  0.26910979  0.92072466    -0.24600
H2953       H  0.83351843  0.23958530  0.89774781     0.20300
S2954       S  0.87077758  0.21640736  0.97653177    -0.30300
H2955       H  0.86397750  0.24595071  0.00057839     0.10700
C2956       C  0.83231930  0.26968257  0.01022754     0.03900
C2957       C  0.82989436  0.28220219  0.03107264    -0.12600
C2958       C  0.84163926  0.29466841  0.54090574    -0.08300
C2959       C  0.85275120  0.29417373  0.00973373     0.07300
C2960       C  0.85524703  0.28158699  0.98915721    -0.13400
S2961       S  0.81930847  0.25388823  0.01121446    -0.30300
H2962       H  0.82124182  0.28305517  0.55543945     0.11600
S2963       S  0.86841412  0.30933425  0.51893173    -0.27400
H2964       H  0.86495829  0.28142231  0.97255136     0.08800
H2965       H  0.87880748  0.21475836  0.94635850     0.27200
H2966       H  0.80996544  0.25943511  0.03695780     0.22000
H2967       H  0.85816702  0.32101231  0.52704212     0.27300
H2968       H  0.83500883  0.28153944  0.93457018     0.16200
C2969       C  0.85150106  0.22844521  0.74329541    -0.11100
C2970       C  0.83999706  0.23938159  0.74375309     0.15400
C2971       C  0.82695001  0.23699949  0.76351638     0.02300
C2972       C  0.82635646  0.22443674  0.78478157    -0.15500
C2973       C  0.83843972  0.21408310  0.78633557    -0.10300
C2974       C  0.85077184  0.21572623  0.76398917     0.09100
C2975       C  0.84227089  0.25344554  0.72454140     0.10100
S2976       S  0.81111970  0.24998364  0.76407120    -0.24600
H2977       H  0.81678700  0.22324285  0.80157488     0.20300
S2978       S  0.86602830  0.20215053  0.76100604    -0.30300
H2979       H  0.86130272  0.23003957  0.72732429     0.10700
C2980       C  0.84609113  0.26717504  0.74044496     0.03900
C2981       C  0.84731990  0.28044924  0.72136528    -0.12600
C2982       C  0.84483983  0.28015370  0.68678899    -0.08300
C2983       C  0.84207337  0.26614692  0.67072241     0.07300
C2984       C  0.84068395  0.25298811  0.68980845    -0.13400
S2985       S  0.84922222  0.26778344  0.78501432    -0.30300
H2986       H  0.84956005  0.29116958  0.73353310     0.11600
S2987       S  0.84036270  0.26427692  0.62597314    -0.27400
H2988       H  0.83819553  0.24232507  0.67756766     0.08800
H2989       H  0.85705209  0.18951633  0.76924687     0.27200
H2990       H  0.85246328  0.28335651  0.78703290     0.22000
H2991       H  0.85056237  0.27601067  0.61823036     0.27300
H2992       H  0.81301049  0.25540998  0.73132610     0.16200
C2993       C  0.87359923  0.38064146  0.56896513    -0.11100
C2994       C  0.88774657  0.37533986  0.55805559     0.15400
C2995       C  0.89286880  0.36089633  0.56818840     0.02300
C2996       C  0.88358881  0.35193575  0.58833423    -0.15500
C2997       C  0.86905682  0.35684748  0.59765112    -0.10300
C2998       C  0.86419089  0.37155811  0.58862678     0.09100
C2999       C  0.89692364  0.38505882  0.53604274     0.10100
S3000       S  0.91071150  0.35289431  0.55478262    -0.24600
H3001       H  0.88733880  0.34060563  0.59480285     0.20300
S3002       S  0.84619980  0.37939469  0.60140594    -0.30300
H3003       H  0.86980335  0.39185981  0.56172584     0.10700
C3004       C  0.90110011  0.38204029  0.00095625     0.03900
C3005       C  0.91085248  0.39085935  0.98133159    -0.12600
C3006       C  0.91586257  0.40219049  0.49415452    -0.08300
C3007       C  0.92009108  0.39943777  0.52770652     0.07300
C3008       C  0.91044272  0.39114709  0.54840016    -0.13400
S3009       S  0.89369788  0.36440542  0.98486450    -0.30300
H3010       H  0.91388271  0.38694453  0.95659878     0.11600
S3011       S  0.93804208  0.40524480  0.54505179    -0.27400
H3012       H  0.91373110  0.38895257  0.57403141     0.08800
H3013       H  0.84555467  0.37155639  0.63198631     0.27200
H3014       H  0.90123460  0.36482594  0.95390368     0.22000
H3015       H  0.94651022  0.40202072  0.51609140     0.27300
H3016       H  0.91092045  0.35977435  0.52311220     0.16200
C3017       C  0.91779644  0.48585880  0.85304251    -0.11100
C3018       C  0.92717902  0.49828787  0.85952383     0.15400
C3019       C  0.93730228  0.49775277  0.88673080     0.02300
C3020       C  0.93897567  0.48428273  0.90460263    -0.15500
C3021       C  0.93064121  0.47125234  0.89629287    -0.10300
C3022       C  0.91929257  0.47234315  0.87128542     0.09100
C3023       C  0.92755707  0.51088291  0.83526950     0.10100
S3024       S  0.94919601  0.51351633  0.89838579    -0.24600
H3025       H  0.94748902  0.48381810  0.92407559     0.20300
S3026       S  0.90687553  0.45668172  0.86155191    -0.30300
H3027       H  0.90984946  0.48652345  0.83248165     0.10700
C3028       C  0.93981310  0.51243996  0.81295655     0.03900
C3029       C  0.94073768  0.52535375  0.79278162    -0.12600
C3030       C  0.92962148  0.53676338  0.79435710    -0.08300
C3031       C  0.91657874  0.53436273  0.81435596     0.07300
C3032       C  0.91578823  0.52154803  0.83491359    -0.13400
S3033       S  0.95459842  0.49824215  0.81109762    -0.30300
H3034       H  0.95067046  0.52697467  0.77728933     0.11600
S3035       S  0.90062126  0.54714575  0.81484592    -0.27400
H3036       H  0.90610161  0.52003196  0.85125398     0.08800
H3037       H  0.89728642  0.46455257  0.83944354     0.27200
H3038       H  0.96252885  0.50447938  0.78388557     0.22000
H3039       H  0.90187033  0.55108346  0.78088126     0.27300
H3040       H  0.93962784  0.52495442  0.88597203     0.16200
C3041       C  0.83604829  0.73033705  0.73118997    -0.11100
C3042       C  0.82430497  0.74102932  0.73120622     0.15400
C3043       C  0.81138282  0.73868359  0.71102250     0.02300
C3044       C  0.81092711  0.72607655  0.68995054    -0.15500
C3045       C  0.82311437  0.71586263  0.68831773    -0.10300
C3046       C  0.83552766  0.71770348  0.71023734     0.09100
C3047       C  0.82616520  0.75475329  0.75157558     0.10100
S3048       S  0.79555785  0.75171433  0.70880986    -0.24600
H3049       H  0.80141399  0.72481963  0.67305514     0.20300
S3050       S  0.85110460  0.70446782  0.71235108    -0.30300
H3051       H  0.84580331  0.73199788  0.74722317     0.10700
C3052       C  0.82028843  0.75553887  0.78411962     0.03900
C3053       C  0.82123429  0.76918782  0.80166315    -0.12600
C3054       C  0.82799365  0.78210130  0.78737774    -0.08300
C3055       C  0.83432008  0.78107171  0.75498015     0.07300
C3056       C  0.83344794  0.76735219  0.73757842    -0.13400
S3057       S  0.81110574  0.73930772  0.80272558    -0.30300
H3058       H  0.81650666  0.76984836  0.82658553     0.11600
S3059       S  0.84279945  0.79690739  0.73364457    -0.27400
H3060       H  0.83798259  0.76662794  0.71245643     0.08800
H3061       H  0.84240978  0.69168547  0.70383429     0.27200
H3062       H  0.80723970  0.74625943  0.83318507     0.22000
H3063       H  0.83128539  0.80719821  0.74245955     0.27300
H3064       H  0.79884140  0.76075276  0.73662769     0.16200
C3065       C  0.83896494  0.77935086  0.97408512    -0.11100
C3066       C  0.82602803  0.77068002  0.98064974     0.15400
C3067       C  0.81200184  0.77497450  0.96654904     0.02300
C3068       C  0.81144117  0.78715060  0.94417450    -0.15500
C3069       C  0.82458721  0.79527797  0.93589331    -0.10300
C3070       C  0.83836457  0.79171324  0.95228659     0.09100
C3071       C  0.83010841  0.75836007  0.50123592     0.10100
S3072       S  0.79467395  0.76476380  0.97444206    -0.24600
H3073       H  0.80081183  0.78978372  0.93188964     0.20300
S3074       S  0.85558824  0.80238110  0.94633553    -0.30300
H3075       H  0.84967915  0.77624615  0.98546328     0.10700
C3076       C  0.83010328  0.74254696  0.98432502     0.03900
C3077       C  0.83452653  0.73126701  0.50602309    -0.12600
C3078       C  0.83121587  0.73182328  0.54029847    -0.08300
C3079       C  0.82812084  0.74602864  0.55540197     0.07300
C3080       C  0.82758568  0.75910233  0.53569457    -0.13400
S3081       S  0.83102379  0.74140278  0.93931115    -0.30300
H3082       H  0.83279759  0.71847452  0.99160396     0.11600
S3083       S  0.82480202  0.74830812  0.59961460    -0.27400
H3084       H  0.82487677  0.76989893  0.54715834     0.08800
H3085       H  0.84824922  0.81638991  0.94169011     0.27200
H3086       H  0.83347205  0.72567443  0.93735513     0.22000
H3087       H  0.83516596  0.73703211  0.60951898     0.27300
H3088       H  0.79830057  0.76034445  0.00719194     0.16200
C3089       C  0.88386689  0.64916479  0.64661072    -0.11100
C3090       C  0.87897643  0.63439112  0.65360662     0.15400
C3091       C  0.86387372  0.63029623  0.64632345     0.02300
C3092       C  0.85386581  0.64118151  0.63355109    -0.15500
C3093       C  0.85864218  0.65608913  0.62715433    -0.10300
C3094       C  0.87389042  0.66005637  0.63380610     0.09100
C3095       C  0.88942385  0.62406806  0.67162206     0.10100
S3096       S  0.85671906  0.61139570  0.65291058    -0.24600
H3097       H  0.84224256  0.63795712  0.62846361     0.20300
S3098       S  0.88102999  0.67907099  0.62937425    -0.30300
H3099       H  0.89538108  0.65242969  0.65268957     0.10700
C3100       C  0.90280150  0.61854588  0.65668470     0.03900
C3101       C  0.91269668  0.60945773  0.67543077    -0.12600
C3102       C  0.90956961  0.60582315  0.70893466    -0.08300
C3103       C  0.89586721  0.61094553  0.72342062     0.07300
C3104       C  0.88608631  0.62016100  0.70480234    -0.13400
S3105       S  0.90718222  0.62287668  0.61364454    -0.30300
H3106       H  0.92309782  0.60540769  0.66411674     0.11600
S3107       S  0.88990133  0.60566603  0.76487870    -0.27400
H3108       H  0.87572469  0.62429076  0.71621988     0.08800
H3109       H  0.86835186  0.68592563  0.64454512     0.27200
H3110       H  0.92174231  0.61633904  0.61324934     0.22000
H3111       H  0.89559427  0.59078372  0.76299660     0.27300
H3112       H  0.87061246  0.60394600  0.64744837     0.16200
C3113       C  0.67669576  0.23777252  0.49060375    -0.11100
C3114       C  0.68857034  0.24203897  0.46925986     0.15400
C3115       C  0.70151359  0.23271786  0.46656319     0.02300
C3116       C  0.70283391  0.21999631  0.48695372    -0.15500
C3117       C  0.69132039  0.21602655  0.50948123    -0.10300
C3118       C  0.67793407  0.22485883  0.51079656     0.09100
C3119       C  0.68980884  0.25589617  0.95118955     0.10100
S3120       S  0.71578238  0.23262256  0.93175696    -0.24600
H3121       H  0.71307789  0.21322902  0.48550916     0.20300
S3122       S  0.66266152  0.22102622  0.53948495    -0.30300
H3123       H  0.66673953  0.24492815  0.49266791     0.10700
C3124       C  0.67923812  0.25976338  0.92639511     0.03900
C3125       C  0.68076649  0.27357666  0.90961516    -0.12600
C3126       C  0.69278999  0.28353234  0.91682540    -0.08300
C3127       C  0.70272746  0.28001806  0.94343413     0.07300
C3128       C  0.70123204  0.26616866  0.96000950    -0.13400
S3129       S  0.66452415  0.24663318  0.91438912    -0.30300
H3130       H  0.67303094  0.27619860  0.88945713     0.11600
S3131       S  0.71735589  0.29266435  0.95777518    -0.27400
H3132       H  0.70531350  0.26631643  0.48359429     0.08800
H3133       H  0.67219523  0.21837236  0.56704220     0.27200
H3134       H  0.65757956  0.25595542  0.89032829     0.22000
H3135       H  0.70872480  0.30589194  0.95266681     0.27300
H3136       H  0.70696896  0.24104653  0.90911597     0.16200
C3137       C  0.69674450  0.25288336  0.75773503    -0.11100
C3138       C  0.69822302  0.25506317  0.72326955     0.15400
C3139       C  0.69812492  0.26997358  0.71024896     0.02300
C3140       C  0.69733423  0.28235404  0.73222836    -0.15500
C3141       C  0.69641526  0.28011538  0.76688184    -0.10300
C3142       C  0.69569780  0.26517133  0.77955149     0.09100
C3143       C  0.69966685  0.24143803  0.70192141     0.10100
S3144       S  0.69930028  0.27392734  0.66610862    -0.24600
H3145       H  0.69787075  0.29376822  0.72231902     0.20300
S3146       S  0.69327287  0.26100500  0.82336146    -0.30300
H3147       H  0.69645817  0.24147166  0.76774170     0.10700
C3148       C  0.71366606  0.23696199  0.68803173     0.03900
C3149       C  0.71435026  0.22396161  0.66782101    -0.12600
C3150       C  0.70132180  0.21525805  0.66162309    -0.08300
C3151       C  0.68754083  0.21922595  0.67757764     0.07300
C3152       C  0.68686328  0.23233514  0.69725636    -0.13400
S3153       S  0.73063494  0.24775519  0.69622099    -0.30300
H3154       H  0.72494080  0.22086241  0.65592757     0.11600
S3155       S  0.67088217  0.20738449  0.67424446    -0.27400
H3156       H  0.67631383  0.23558221  0.70914308     0.08800
H3157       H  0.68412605  0.27370865  0.83011732     0.27200
H3158       H  0.74082835  0.23763702  0.68088295     0.22000
H3159       H  0.66126360  0.21623442  0.69440872     0.27300
H3160       H  0.69234598  0.26048301  0.65529148     0.16200
C3161       C  0.75609865  0.35212265  0.76415407    -0.11100
C3162       C  0.76785445  0.34147995  0.76205800     0.15400
C3163       C  0.76764616  0.32856807  0.78286846     0.02300
C3164       C  0.75516040  0.32602263  0.80354693    -0.15500
C3165       C  0.74278022  0.33601666  0.80367279    -0.10300
C3166       C  0.74361073  0.34958787  0.78497357     0.09100
C3167       C  0.77897641  0.34282647  0.73479090     0.10100
S3168       S  0.78208977  0.31406747  0.78138321    -0.24600
H3169       H  0.75462569  0.31556125  0.81768984     0.20300
S3170       S  0.72894962  0.36384277  0.78589351    -0.30300
H3171       H  0.75633943  0.36210281  0.74838732     0.10700
C3172       C  0.77630936  0.33572166  0.70388992     0.03900
C3173       C  0.78805367  0.33481411  0.68049266    -0.12600
C3174       C  0.80245465  0.34074712  0.68758369    -0.08300
C3175       C  0.80453631  0.34929672  0.71717433     0.07300
C3176       C  0.79277958  0.35016143  0.74058147    -0.13400
S3177       S  0.75828319  0.32684230  0.69525088    -0.30300
H3178       H  0.78632017  0.32842879  0.65773794     0.11600
S3179       S  0.82191088  0.35907919  0.72685543    -0.27400
H3180       H  0.79460960  0.35600082  0.76403727     0.08800
H3181       H  0.72442724  0.36087890  0.81897436     0.27200
H3182       H  0.76140992  0.32287253  0.66191737     0.22000
H3183       H  0.82547520  0.36244476  0.69339300     0.27300
H3184       H  0.79423994  0.32378884  0.77419623     0.16200
C3185       C  0.63663795  0.39477600  0.91957060    -0.11100
C3186       C  0.63676592  0.37898972  0.92313567     0.15400
C3187       C  0.62573844  0.37194436  0.94348214     0.02300
C3188       C  0.61430399  0.38073195  0.95804600    -0.15500
C3189       C  0.61382140  0.39649724  0.95352986    -0.10300
C3190       C  0.62547061  0.40361745  0.93493803     0.09100
C3191       C  0.64842050  0.37019512  0.90498393     0.10100
S3192       S  0.62550506  0.35182428  0.95156641    -0.24600
H3193       H  0.60558691  0.37516238  0.97264573     0.20300
S3194       S  0.62709371  0.42389713  0.93079051    -0.30300
H3195       H  0.64532664  0.40024332  0.90469535     0.10700
C3196       C  0.64460467  0.36085123  0.87777133     0.03900
C3197       C  0.65586732  0.35194375  0.86273274    -0.12600
C3198       C  0.67095265  0.35229559  0.87405650    -0.08300
C3199       C  0.67488875  0.36261285  0.89978763     0.07300
C3200       C  0.66356116  0.37125610  0.91518264    -0.13400
S3201       S  0.62537040  0.36020080  0.86232035    -0.30300
H3202       H  0.65276607  0.34427456  0.84279875     0.11600
S3203       S  0.69405980  0.36555232  0.91392195    -0.27400
H3204       H  0.66654469  0.37881425  0.93547129     0.08800
H3205       H  0.62261872  0.42701517  0.96384457     0.27200
H3206       H  0.62803432  0.34989633  0.83616410     0.22000
H3207       H  0.70039891  0.36484337  0.88167897     0.27300
H3208       H  0.64118599  0.34946311  0.94799192     0.16200
C3209       C  0.67484163  0.76772179  0.75357384    -0.11100
C3210       C  0.67577031  0.75347254  0.73817403     0.15400
C3211       C  0.67492589  0.75243519  0.70309974     0.02300
C3212       C  0.67438440  0.76570886  0.68413401    -0.15500
C3213       C  0.67400810  0.78004470  0.69937242    -0.10300
C3214       C  0.67368134  0.78099643  0.73455163     0.09100
C3215       C  0.67800219  0.73996230  0.75932287     0.10100
S3216       S  0.67509391  0.73460438  0.68104569    -0.24600
H3217       H  0.67455407  0.76486264  0.65711213     0.20300
S3218       S  0.67302196  0.79875726  0.75647047    -0.30300
H3219       H  0.67528176  0.76850505  0.78056960     0.10700
C3220       C  0.69241539  0.73333112  0.76358698     0.03900
C3221       C  0.69401670  0.72080564  0.78489673    -0.12600
C3222       C  0.68144819  0.71470837  0.80181490    -0.08300
C3223       C  0.66686551  0.72093511  0.79570093     0.07300
C3224       C  0.66540025  0.73367832  0.77528172    -0.13400
S3225       S  0.70883694  0.74118765  0.74293270    -0.30300
H3226       H  0.70518101  0.71608915  0.78924876     0.11600
S3227       S  0.64956597  0.71300102  0.81209501    -0.27400
H3228       H  0.65427769  0.73859182  0.77122956     0.08800
H3229       H  0.66082005  0.80447178  0.73773650     0.27200
H3230       H  0.71921264  0.73000250  0.75324641     0.22000
H3231       H  0.65396706  0.69788222  0.80635374     0.27300
H3232       H  0.66820907  0.72599383  0.70636563     0.16200
C3233       C  0.69312140  0.72933138  0.00177334    -0.11100
C3234       C  0.68073378  0.73918701  0.99894669     0.15400
C3235       C  0.66844602  0.73527581  0.97804739     0.02300
C3236       C  0.66912309  0.72185441  0.95945474    -0.15500
C3237       C  0.68192945  0.71241989  0.96080390    -0.10300
C3238       C  0.69378537  0.71594170  0.98323098     0.09100
C3239       C  0.68099506  0.75336775  0.01837370     0.10100
S3240       S  0.65181188  0.74703283  0.97317134    -0.24600
H3241       H  0.66001757  0.71927029  0.94221676     0.20300
S3242       S  0.71001869  0.70379343  0.98938676    -0.30300
H3243       H  0.70236699  0.73213666  0.01848155     0.10700
C3244       C  0.67231759  0.75566635  0.55032790     0.03900
C3245       C  0.67271287  0.76921884  0.56833460    -0.12600
C3246       C  0.68114249  0.78170785  0.55695536    -0.08300
C3247       C  0.68968886  0.77948876  0.02352834     0.07300
C3248       C  0.68919110  0.76577776  0.00597762    -0.13400
S3249       S  0.66212279  0.73953580  0.56667768    -0.30300
H3250       H  0.66676951  0.76995309  0.59196475     0.11600
S3251       S  0.69995735  0.79500783  0.00500778    -0.27400
H3252       H  0.69507468  0.76480288  0.98229725     0.08800
H3253       H  0.70239442  0.69020683  0.98203724     0.27200
H3254       H  0.65783243  0.74617111  0.59721404     0.22000
H3255       H  0.69011492  0.80638528  0.01675188     0.27300
H3256       H  0.65851046  0.76093302  0.98159629     0.16200
C3257       C  0.74446406  0.65236451  0.96583617    -0.11100
C3258       C  0.75652491  0.66242149  0.96101346     0.15400
C3259       C  0.75633935  0.67235225  0.93343070     0.02300
C3260       C  0.74348476  0.67300738  0.91313108    -0.15500
C3261       C  0.73073841  0.66392690  0.91966582    -0.10300
C3262       C  0.73167871  0.65283594  0.94519928     0.09100
C3263       C  0.76780577  0.66406755  0.98789982     0.10100
S3264       S  0.77142104  0.68559321  0.92494828    -0.24600
H3265       H  0.74309244  0.68145402  0.89350189     0.20300
S3266       S  0.71688614  0.63929170  0.95352569    -0.30300
H3267       H  0.74472438  0.64456837  0.98675423     0.10700
C3268       C  0.76375875  0.67592340  0.51851108     0.03900
C3269       C  0.77508222  0.67837608  0.54236244    -0.12600
C3270       C  0.78875910  0.67024238  0.54127302    -0.08300
C3271       C  0.79056519  0.65853376  0.51747012     0.07300
C3272       C  0.78134088  0.65577747  0.98665849    -0.13400
S3273       S  0.74670145  0.68731022  0.51906782    -0.30300
H3274       H  0.77365971  0.68729943  0.56065935     0.11600
S3275       S  0.80712596  0.64655317  0.51589321    -0.27400
H3276       H  0.78320558  0.64778898  0.96651565     0.08800
H3277       H  0.71293603  0.63743891  0.91972160     0.27200
H3278       H  0.75090429  0.69681748  0.54567167     0.22000
H3279       H  0.80987705  0.64690379  0.55050238     0.27300
H3280       H  0.78322518  0.67643936  0.93709155     0.16200
C3281       C  0.61262238  0.50890265  0.60297796    -0.11100
C3282       C  0.60455615  0.49544107  0.60793918     0.15400
C3283       C  0.59657514  0.49319527  0.63818119     0.02300
C3284       C  0.59602980  0.50488279  0.66172428    -0.15500
C3285       C  0.60304790  0.51886942  0.65556097    -0.10300
C3286       C  0.61210893  0.52055351  0.62660493     0.09100
C3287       C  0.60383632  0.48431442  0.58053224     0.10100
S3288       S  0.58625877  0.47605288  0.64785655    -0.24600
H3289       H  0.58916271  0.50338875  0.68394626     0.20300
S3290       S  0.62322577  0.53725777  0.61828804    -0.30300
H3291       H  0.61907602  0.51046136  0.58018235     0.10700
C3292       C  0.59378012  0.48643182  0.55361923     0.03900
C3293       C  0.59096358  0.47436218  0.53180508    -0.12600
C3294       C  0.59791188  0.46019195  0.53662688    -0.08300
C3295       C  0.60925096  0.45868109  0.56149754     0.07300
C3296       C  0.61200482  0.47077734  0.58332446    -0.13400
S3297       S  0.58348477  0.50403149  0.54891923    -0.30300
H3298       H  0.58384893  0.47644707  0.00998114     0.11600
S3299       S  0.62007118  0.44138937  0.56633397    -0.27400
H3300       H  0.61996004  0.46947917  0.60371491     0.08800
H3301       H  0.62625219  0.54041182  0.65208740     0.27200
H3302       H  0.57559252  0.50005137  0.51970378     0.22000
H3303       H  0.62959305  0.44646090  0.59216956     0.27300
H3304       H  0.58315452  0.47143440  0.61502768     0.16200
C3305       C  0.64041029  0.62868663  0.82466931    -0.11100
C3306       C  0.64811133  0.62033933  0.80014352     0.15400
C3307       C  0.66337418  0.62368867  0.79303484     0.02300
C3308       C  0.67063381  0.63521402  0.81071513    -0.15500
C3309       C  0.66303340  0.64367475  0.83544523    -0.10300
C3310       C  0.64757814  0.64044494  0.84198035     0.09100
C3311       C  0.63975731  0.60850155  0.78181455     0.10100
S3312       S  0.67416695  0.61382323  0.76147137    -0.24600
H3313       H  0.68241337  0.63754420  0.80500285     0.20300
S3314       S  0.63606777  0.65133643  0.87037088    -0.30300
H3315       H  0.62857549  0.62627069  0.82968860     0.10700
C3316       C  0.63649971  0.59446971  0.79680738     0.03900
C3317       C  0.62779854  0.58383700  0.77938079    -0.12600
C3318       C  0.62221279  0.58696830  0.74720618    -0.08300
C3319       C  0.62636554  0.60073025  0.73147562     0.07300
C3320       C  0.63490935  0.61140470  0.74911647    -0.13400
S3321       S  0.64322752  0.59023396  0.83839077    -0.30300
H3322       H  0.62476316  0.57331728  0.79156038     0.11600
S3323       S  0.62135856  0.60530991  0.68901324    -0.27400
H3324       H  0.63776765  0.62209006  0.73735118     0.08800
H3325       H  0.64051745  0.66535877  0.85679398     0.27200
H3326       H  0.63808219  0.57516571  0.83951939     0.22000
H3327       H  0.62327147  0.59042374  0.67711004     0.27300
H3328       H  0.66674656  0.59982180  0.76471596     0.16200
C3329       C  0.18637787  0.72428025  0.95139277    -0.11100
C3330       C  0.19679518  0.73611379  0.94738170     0.15400
C3331       C  0.20866022  0.73464755  0.92389251     0.02300
C3332       C  0.20916842  0.72189195  0.90323320    -0.15500
C3333       C  0.19826089  0.71042097  0.90601865    -0.10300
C3334       C  0.18707388  0.71139016  0.93120575     0.09100
C3335       C  0.19508614  0.74971384  0.96843293     0.10100
S3336       S  0.22319108  0.74880292  0.91842489    -0.24600
H3337       H  0.21777102  0.72122152  0.88392821     0.20300
S3338       S  0.17344941  0.69655796  0.93884899    -0.30300
H3339       H  0.17755213  0.72518087  0.97015844     0.10700
C3340       C  0.18988768  0.76363492  0.95539026     0.03900
C3341       C  0.18865836  0.77707581  0.47282615    -0.12600
C3342       C  0.19381102  0.77643584  0.50598139    -0.08300
C3343       C  0.19868386  0.76236064  0.51925832     0.07300
C3344       C  0.19940445  0.74965042  0.49866777    -0.13400
S3345       S  0.18415395  0.76511530  0.91221099    -0.30300
H3346       H  0.18581728  0.78726309  0.96625289     0.11600
S3347       S  0.20366837  0.75967190  0.56255370    -0.27400
H3348       H  0.20348141  0.73899835  0.50877722     0.08800
H3349       H  0.18279312  0.68464020  0.92773501     0.27200
H3350       H  0.17931495  0.78029921  0.91358606     0.22000
H3351       H  0.19241517  0.76953270  0.57469085     0.27300
H3352       H  0.22319505  0.75399034  0.95161010     0.16200
C3353       C  0.20233058  0.77112092  0.70216643    -0.11100
C3354       C  0.19240622  0.75914387  0.69490406     0.15400
C3355       C  0.18283967  0.76013305  0.66685133     0.02300
C3356       C  0.18348818  0.77292988  0.64653230    -0.15500
C3357       C  0.19394650  0.78461680  0.65261589    -0.10300
C3358       C  0.20318198  0.78386146  0.68139412     0.09100
C3359       C  0.19229219  0.74569198  0.71677474     0.10100
S3360       S  0.17009287  0.74515248  0.65466109    -0.24600
H3361       H  0.17625984  0.77333038  0.62467947     0.20300
S3362       S  0.21588980  0.79884312  0.69348799    -0.30300
H3363       H  0.20948758  0.77048825  0.72412052     0.10700
C3364       C  0.20465184  0.73558265  0.71730620     0.03900
C3365       C  0.20397328  0.72274457  0.73773533    -0.12600
C3366       C  0.19114697  0.71971559  0.75745449    -0.08300
C3367       C  0.17881353  0.72993917  0.75704032     0.07300
C3368       C  0.17946668  0.74274647  0.73648038    -0.13400
S3369       S  0.22104424  0.73871595  0.69104980    -0.30300
H3370       H  0.21343118  0.71489866  0.73811472     0.11600
S3371       S  0.16236102  0.72773077  0.78329691    -0.27400
H3372       H  0.17000200  0.75059838  0.73611896     0.08800
H3373       H  0.20618403  0.81061468  0.68314049     0.27200
H3374       H  0.22924779  0.72580602  0.70103893     0.22000
H3375       H  0.17047375  0.72253157  0.81130754     0.27300
H3376       H  0.17946394  0.73314460  0.66507451     0.16200
C3377       C  0.03723854  0.57733950  0.64806909    -0.11100
C3378       C  0.02692933  0.58931526  0.64427770     0.15400
C3379       C  0.02998176  0.60078731  0.62061203     0.02300
C3380       C  0.04237033  0.59919422  0.59894344    -0.15500
C3381       C  0.05197472  0.58651382  0.60087668    -0.10300
C3382       C  0.04980970  0.57592592  0.62698421     0.09100
C3383       C  0.01260580  0.58877872  0.66358611     0.10100
S3384       S  0.01806127  0.61726415  0.61576550    -0.24600
H3385       H  0.04557409  0.60888015  0.08613891     0.20300
S3386       S  0.06246751  0.56017885  0.63420076    -0.30300
H3387       H  0.03518307  0.56873797  0.66686064     0.10700
C3388       C  0.99875004  0.58493083  0.64817117     0.03900
C3389       C  0.98560248  0.58362070  0.66769143    -0.12600
C3390       C  0.98601891  0.58606539  0.70228793    -0.08300
C3391       C  0.99993416  0.58974694  0.71776448     0.07300
C3392       C  0.01307665  0.59106041  0.69820840    -0.13400
S3393       S  0.99789465  0.58115064  0.60384330    -0.30300
H3394       H  0.97492578  0.58070613  0.65600623     0.11600
S3395       S  0.00126131  0.59193660  0.76257436    -0.27400
H3396       H  0.02381578  0.59375825  0.70986848     0.08800
H3397       H  0.07545935  0.56744879  0.62159590     0.27200
H3398       H  0.98253634  0.57690099  0.60279757     0.22000
H3399       H  0.01718379  0.59143250  0.76447336     0.27300
H3400       H  0.01287670  0.61764258  0.64897365     0.16200
C3401       C  0.02067771  0.58643743  0.89704955    -0.11100
C3402       C  0.00798918  0.59130426  0.91534367     0.15400
C3403       C  0.00922098  0.59331967  0.95016516     0.02300
C3404       C  0.02310034  0.59049120  0.96582112    -0.15500
C3405       C  0.03578621  0.58551355  0.94759283    -0.10300
C3406       C  0.03454743  0.58354606  0.91271375     0.09100
C3407       C  0.99341986  0.59267089  0.89746018     0.10100
S3408       S  0.99350540  0.59911100  0.97607292    -0.24600
H3409       H  0.02394117  0.59194758  0.99264316     0.20300
S3410       S  0.05015576  0.57761768  0.88671124    -0.30300
H3411       H  0.01969192  0.58471071  0.87032927     0.10700
C3412       C  0.99091120  0.60420083  0.87374465     0.03900
C3413       C  0.97831174  0.60327156  0.85250074    -0.12600
C3414       C  0.96847302  0.59079535  0.85394588    -0.08300
C3415       C  0.97034066  0.57996397  0.87971239     0.07300
C3416       C  0.98277678  0.58104292  0.90116752    -0.13400
S3417       S  0.00431286  0.61950548  0.86902533    -0.30300
H3418       H  0.97692884  0.61154622  0.83276105     0.11600
S3419       S  0.95778067  0.56405527  0.88542325    -0.27400
H3420       H  0.98464439  0.57227251  0.91968175     0.08800
H3421       H  0.06136243  0.58508507  0.90531163     0.27200
H3422       H  0.99628353  0.62747229  0.84424156     0.22000
H3423       H  0.94489079  0.57132829  0.87228391     0.27300
H3424       H  0.98575190  0.60727295  0.95122428     0.16200
C3425       C  0.12149695  0.61179533  0.90243063    -0.11100
C3426       C  0.13271153  0.61963159  0.92008334     0.15400
C3427       C  0.13284719  0.61896560  0.95535563     0.02300
C3428       C  0.12202695  0.61015319  0.97202433    -0.15500
C3429       C  0.11074864  0.60228971  0.95440033    -0.10300
C3430       C  0.11040369  0.60339294  0.91909618     0.09100
C3431       C  0.14344134  0.62912415  0.90092117     0.10100
S3432       S  0.14629502  0.62923090  0.98064470    -0.24600
H3433       H  0.12233545  0.60956094  0.99905018     0.20300
S3434       S  0.09552168  0.59537969  0.89391412    -0.30300
H3435       H  0.12112513  0.61261691  0.87542598     0.10700
C3436       C  0.15883346  0.62518060  0.89724094     0.03900
C3437       C  0.16856659  0.63493807  0.87970558    -0.12600
C3438       C  0.16318799  0.64853393  0.86562343    -0.08300
C3439       C  0.14769868  0.65238800  0.86954809     0.07300
C3440       C  0.13800259  0.64253577  0.88654564    -0.13400
S3441       S  0.16597745  0.60762653  0.91434597    -0.30300
H3442       H  0.18040553  0.63193991  0.87681709     0.11600
S3443       S  0.13976026  0.67014780  0.85575714    -0.27400
H3444       H  0.12617929  0.64561382  0.88968881     0.08800
H3445       H  0.08389176  0.60027232  0.91546517     0.27200
H3446       H  0.18127794  0.60994264  0.90583686     0.22000
H3447       H  0.15181988  0.67892267  0.86817734     0.27300
H3448       H  0.14876833  0.64122864  0.95823911     0.16200
C3449       C  0.33169077  0.74522286  0.90950095    -0.11100
C3450       C  0.32046283  0.73451083  0.90191182     0.15400
C3451       C  0.30995037  0.73766193  0.87634110     0.02300
C3452       C  0.31057681  0.75159146  0.85981103    -0.15500
C3453       C  0.32150147  0.76259886  0.86804332    -0.10300
C3454       C  0.33229496  0.75920357  0.89308903     0.09100
C3455       C  0.31896960  0.72113891  0.92395552     0.10100
S3456       S  0.29530835  0.72453886  0.86403827    -0.24600
H3457       H  0.30231764  0.75386822  0.84041491     0.20300
S3458       S  0.34640100  0.77247249  0.90712663    -0.30300
H3459       H  0.33961043  0.74296112  0.92959467     0.10700
C3460       C  0.33076737  0.71046903  0.92728068     0.03900
C3461       C  0.32986075  0.69942020  0.95233826    -0.12600
C3462       C  0.31818701  0.69958999  0.47499809    -0.08300
C3463       C  0.30535988  0.70925241  0.97001033     0.07300
C3464       C  0.30618623  0.72012157  0.94469660    -0.13400
S3465       S  0.34704868  0.71103614  0.89990043    -0.30300
H3466       H  0.33907816  0.69142555  0.95552280     0.11600
S3467       S  0.28859375  0.70933421  0.49233061    -0.27400
H3468       H  0.29722034  0.72847965  0.94250568     0.08800
H3469       H  0.33595646  0.78441200  0.91113582     0.27200
H3470       H  0.35574512  0.70017780  0.91710781     0.22000
H3471       H  0.29612556  0.71024826  0.52322730     0.27300
H3472       H  0.30307413  0.71130736  0.87360285     0.16200
C3473       C  0.32318604  0.77038181  0.67461945    -0.11100
C3474       C  0.31178590  0.75937715  0.67426239     0.15400
C3475       C  0.29905513  0.76104252  0.69539881     0.02300
C3476       C  0.29870378  0.77291301  0.71859773    -0.15500
C3477       C  0.31084333  0.78310936  0.72109344    -0.10300
C3478       C  0.32277866  0.78230108  0.69753239     0.09100
C3479       C  0.31456859  0.74532762  0.65520549     0.10100
S3480       S  0.28353166  0.74775187  0.69568155    -0.24600
H3481       H  0.28947563  0.77346069  0.73645730     0.20300
S3482       S  0.33821369  0.79568771  0.69654079    -0.30300
H3483       H  0.33284636  0.76925182  0.65804098     0.10700
C3484       C  0.31293473  0.74472372  0.62028809     0.03900
C3485       C  0.31546793  0.73095861  0.60367389    -0.12600
C3486       C  0.31981774  0.71786480  0.62129485    -0.08300
C3487       C  0.32176926  0.71865408  0.65625875     0.07300
C3488       C  0.31922095  0.73238096  0.67274698    -0.13400
S3489       S  0.30719588  0.76133832  0.59715558    -0.30300
H3490       H  0.31391716  0.73031945  0.57688259     0.11600
S3491       S  0.32657496  0.70244160  0.68153048    -0.27400
H3492       H  0.32055868  0.73292203  0.69962846     0.08800
H3493       H  0.32978906  0.80789846  0.70952545     0.27200
H3494       H  0.30664218  0.75439018  0.56556228     0.22000
H3495       H  0.31710820  0.69231766  0.66432882     0.27300
H3496       H  0.28525359  0.74290681  0.66244885     0.16200
C3497       C  0.26349818  0.64607857  0.65629019    -0.11100
C3498       C  0.26325575  0.65530057  0.68492376     0.15400
C3499       C  0.27536473  0.66540328  0.69066906     0.02300
C3500       C  0.28711599  0.66636601  0.66749155    -0.15500
C3501       C  0.28693953  0.65789227  0.63784256    -0.10300
C3502       C  0.27523066  0.64725372  0.63271331     0.09100
C3503       C  0.25006862  0.65479577  0.70783456     0.10100
S3504       S  0.27613100  0.67805485  0.72604972    -0.24600
H3505       H  0.29603186  0.67456422  0.67176173     0.20300
S3506       S  0.27485030  0.63468296  0.59728281    -0.30300
H3507       H  0.25438668  0.63807998  0.65211066     0.10700
C3508       C  0.23584573  0.66052821  0.69791546     0.03900
C3509       C  0.22438591  0.66236115  0.72183247    -0.12600
C3510       C  0.22689458  0.65889103  0.75568652    -0.08300
C3511       C  0.24081511  0.65214466  0.76503184     0.07300
C3512       C  0.25222283  0.65018401  0.74105105    -0.13400
S3513       S  0.23272737  0.66700109  0.65561115    -0.30300
H3514       H  0.21378407  0.66758101  0.71446899     0.11600
S3515       S  0.24483944  0.64604026  0.80704247    -0.27400
H3516       H  0.26309885  0.64558340  0.74858706     0.08800
H3517       H  0.29069858  0.63371938  0.59378290     0.27200
H3518       H  0.21719443  0.67029790  0.65908529     0.22000
H3519       H  0.22989832  0.64141650  0.81394731     0.27300
H3520       H  0.26049839  0.68119068  0.72695049     0.16200
C3521       C  0.50079900  0.55585265  0.58583083    -0.11100
C3522       C  0.50796811  0.56990355  0.58968437     0.15400
C3523       C  0.50194831  0.58275250  0.57357438     0.02300
C3524       C  0.48939817  0.58109772  0.55256632    -0.15500
C3525       C  0.48231069  0.56693215  0.54795903    -0.10300
C3526       C  0.48783822  0.55430215  0.56610723     0.09100
C3527       C  0.52171433  0.57056606  0.61065180     0.10100
S3528       S  0.50977838  0.60148902  0.57862244    -0.24600
H3529       H  0.48530472  0.59100175  0.53934109     0.20300
S3530       S  0.47892813  0.53596505  0.56587447    -0.30300
H3531       H  0.50526661  0.54601025  0.59873161     0.10700
C3532       C  0.52086796  0.56763916  0.64513933     0.03900
C3533       C  0.53423135  0.56641001  0.66360918    -0.12600
C3534       C  0.54849619  0.56793464  0.64837906    -0.08300
C3535       C  0.54933181  0.57133777  0.61392546     0.07300
C3536       C  0.53590244  0.57281437  0.59550713    -0.13400
S3537       S  0.50275255  0.56523790  0.66561654    -0.30300
H3538       H  0.53357924  0.56392571  0.69006238     0.11600
S3539       S  0.56702158  0.57260014  0.59154032    -0.27400
H3540       H  0.53652188  0.57492940  0.56887425     0.08800
H3541       H  0.46422379  0.54190785  0.57004317     0.27200
H3542       H  0.50835675  0.56391191  0.69837400     0.22000
H3543       H  0.57358054  0.55989454  0.60715307     0.27300
H3544       H  0.51531714  0.59929016  0.61118487     0.16200
C3545       C  0.54319902  0.57076987  0.84286300    -0.11100
C3546       C  0.53159344  0.55995500  0.84219752     0.15400
C3547       C  0.53292617  0.54728871  0.82083508     0.02300
C3548       C  0.54547265  0.54607614  0.79958868    -0.15500
C3549       C  0.55680413  0.55722821  0.79915543    -0.10300
C3550       C  0.55583024  0.56947886  0.82187497     0.09100
C3551       C  0.51795485  0.56243170  0.86300899     0.10100
S3552       S  0.51871191  0.53263840  0.81847904    -0.24600
H3553       H  0.54602542  0.53668516  0.78218978     0.20300
S3554       S  0.57026555  0.58383771  0.82531469    -0.30300
H3555       H  0.54230151  0.58038997  0.85957505     0.10700
C3556       C  0.51830046  0.56018959  0.89781532     0.03900
C3557       C  0.50478446  0.56122111  0.91608076    -0.12600
C3558       C  0.49093586  0.56449322  0.90029018    -0.08300
C3559       C  0.49071390  0.56721557  0.86555019     0.07300
C3560       C  0.50424890  0.56630434  0.84735467    -0.13400
S3561       S  0.53577985  0.55524771  0.91870422    -0.30300
H3562       H  0.50491771  0.55917063  0.94275315     0.11600
S3563       S  0.47348286  0.57078283  0.84266233    -0.27400
H3564       H  0.50401578  0.56801309  0.82055240     0.08800
H3565       H  0.58243475  0.57403676  0.81806171     0.27200
H3566       H  0.52965521  0.55382219  0.95100831     0.22000
H3567       H  0.46459631  0.56035156  0.86060302     0.27300
H3568       H  0.51382823  0.53374260  0.85181854     0.16200
C3569       C  0.40300449  0.61885445  0.49636485    -0.11100
C3570       C  0.39078361  0.61237354  0.51359471     0.15400
C3571       C  0.39071476  0.59664694  0.51968033     0.02300
C3572       C  0.40279594  0.58775163  0.50833894    -0.15500
C3573       C  0.41525192  0.59419674  0.49157446    -0.10300
C3574       C  0.41532875  0.61004510  0.48586474     0.09100
C3575       C  0.37824376  0.62230203  0.52474274     0.10100
S3576       S  0.37564684  0.58729382  0.54211206    -0.24600
H3577       H  0.40249287  0.57566319  0.51299393     0.20300
S3578       S  0.43099719  0.61991494  0.46695044    -0.30300
H3579       H  0.40308769  0.63095858  0.49177189     0.10700
C3580       C  0.38029006  0.63286812  0.55063702     0.03900
C3581       C  0.36822764  0.64230486  0.55993149    -0.12600
C3582       C  0.35406371  0.64145255  0.54390815    -0.08300
C3583       C  0.35198691  0.63057746  0.51816067     0.07300
C3584       C  0.36414285  0.62119144  0.50892761    -0.13400
S3585       S  0.39817010  0.63408313  0.57245959    -0.30300
H3586       H  0.36987878  0.65041268  0.57987018     0.11600
S3587       S  0.34340552  0.64420961  0.97046305    -0.27400
H3588       H  0.36694205  0.62241985  0.96586029     0.08800
H3589       H  0.44199840  0.61264480  0.48677048     0.27200
H3590       H  0.39473851  0.64717910  0.59102219     0.22000
H3591       H  0.33796533  0.61543918  0.47809712     0.27300
H3592       H  0.37245321  0.59940707  0.56382368     0.16200
C3593       C  0.17795616  0.25971874  0.78905124    -0.11100
C3594       C  0.16822814  0.24838156  0.80092525     0.15400
C3595       C  0.15991595  0.25075144  0.83048062     0.02300
C3596       C  0.16180889  0.26426836  0.84800740    -0.15500
C3597       C  0.17163614  0.27567146  0.83646642    -0.10300
C3598       C  0.17963853  0.27344823  0.80623543     0.09100
C3599       C  0.16714260  0.23423274  0.78169007     0.10100
S3600       S  0.14706349  0.23690007  0.84769607    -0.24600
H3601       H  0.15559964  0.26581041  0.87114609     0.20300
S3602       S  0.19144844  0.28810860  0.78843932    -0.30300
H3603       H  0.18414446  0.25777403  0.76605236     0.10700
C3604       C  0.15651487  0.23270231  0.75571117     0.03900
C3605       C  0.15707389  0.21986577  0.73518097    -0.12600
C3606       C  0.16842532  0.20889172  0.73953810    -0.08300
C3607       C  0.17853305  0.21008003  0.76675283     0.07300
C3608       C  0.17778736  0.22275459  0.78757116    -0.13400
S3609       S  0.14290167  0.24757113  0.74758041    -0.30300
H3610       H  0.14947144  0.21899071  0.71405228     0.11600
S3611       S  0.19299267  0.19610268  0.77524265    -0.27400
H3612       H  0.18589785  0.22396224  0.80770949     0.08800
H3613       H  0.19517553  0.28047183  0.75870161     0.27200
H3614       H  0.13610171  0.24077018  0.71959665     0.22000
H3615       H  0.18522881  0.18387926  0.76060121     0.27300
H3616       H  0.14282307  0.23015520  0.81738816     0.16200
C3617       C  0.16082340  0.24615401  0.08013232    -0.11100
C3618       C  0.16882957  0.24831349  0.05035694     0.15400
C3619       C  0.17952955  0.23735193  0.03995901     0.02300
C3620       C  0.18199445  0.22446055  0.05960174    -0.15500
C3621       C  0.17276186  0.22394494  0.59281837    -0.10300
C3622       C  0.16290444  0.23566272  0.60374642     0.09100
C3623       C  0.16689517  0.26272179  0.03218017     0.10100
S3624       S  0.19048474  0.23925962  0.00209875    -0.24600
H3625       H  0.19007844  0.21600522  0.05124979     0.20300
S3626       S  0.15435471  0.23601378  0.64467438    -0.30300
H3627       H  0.15291653  0.25476706  0.08854726     0.10700
C3628       C  0.15505696  0.26489378  0.00903254     0.03900
C3629       C  0.15508081  0.27789306  0.98881574    -0.12600
C3630       C  0.16682716  0.28853357  0.99126555    -0.08300
C3631       C  0.17789447  0.28691525  0.01645622     0.07300
C3632       C  0.17783057  0.27401650  0.03660421    -0.13400
S3633       S  0.14087957  0.25042532  0.00294557    -0.30300
H3634       H  0.14676870  0.27906965  0.96908223     0.11600
S3635       S  0.19292240  0.30048586  0.02261555    -0.27400
H3636       H  0.18675625  0.27243668  0.05487534     0.08800
H3637       H  0.16724902  0.23033905  0.66121332     0.27200
H3638       H  0.13223860  0.25835642  0.97911967     0.22000
H3639       H  0.18514573  0.31290134  0.00868873     0.27300
H3640       H  0.17945655  0.24724792  0.98386501     0.16200
C3641       C  0.03223697  0.39723379  0.54896012    -0.11100
C3642       C  0.03091124  0.41067660  0.53051662     0.15400
C3643       C  0.04233957  0.42176309  0.53296436     0.02300
C3644       C  0.05401924  0.41985281  0.55616181    -0.15500
C3645       C  0.05450815  0.40711307  0.57722511    -0.10300
C3646       C  0.04400907  0.39525234  0.57198663     0.09100
C3647       C  0.01647873  0.41378232  0.51312290     0.10100
S3648       S  0.04193867  0.43912383  0.50917653    -0.24600
H3649       H  0.06204927  0.42900520  0.55959748     0.20300
S3650       S  0.04468550  0.37762273  0.59466859    -0.30300
H3651       H  0.02361509  0.38855906  0.54662104     0.10700
C3652       C  0.01257317  0.40646653  0.48315965     0.03900
C3653       C  0.99839839  0.40939864  0.46865138    -0.12600
C3654       C  0.98806579  0.41953355  0.48354001    -0.08300
C3655       C  0.99201623  0.42668612  0.51385507     0.07300
C3656       C  0.00621926  0.42388200  0.52802688    -0.13400
S3657       S  0.02580946  0.39377712  0.46302566    -0.30300
H3658       H  0.99543260  0.40393693  0.44535192     0.11600
S3659       S  0.97919110  0.43876834  0.53670448    -0.27400
H3660       H  0.00916913  0.42930321  0.55142296     0.08800
H3661       H  0.06049763  0.37780821  0.59934680     0.27200
H3662       H  0.01684089  0.39063179  0.43483227     0.22000
H3663       H  0.96634624  0.42971553  0.53081014     0.27300
H3664       H  0.03368391  0.43331796  0.48203071     0.16200
C3665       C  0.00866378  0.40855367  0.74027090    -0.11100
C3666       C  0.00785301  0.41791756  0.76840093     0.15400
C3667       C  0.02025759  0.42729420  0.77662469     0.02300
C3668       C  0.03312127  0.42722229  0.75631160    -0.15500
C3669       C  0.03415132  0.41765390  0.72841286    -0.10300
C3670       C  0.02164188  0.40834895  0.71999727     0.09100
C3671       C  0.99408419  0.41754867  0.78924397     0.10100
S3672       S  0.02051972  0.43942778  0.81294444    -0.24600
H3673       H  0.04261629  0.43438432  0.76300836     0.20300
S3674       S  0.02169831  0.39667870  0.68287327    -0.30300
H3675       H  0.99904086  0.40146090  0.73422094     0.10700
C3676       C  0.98413426  0.43001330  0.79061702     0.03900
C3677       C  0.97319152  0.43060776  0.81588700    -0.12600
C3678       C  0.97192546  0.41888634  0.83943496    -0.08300
C3679       C  0.98106359  0.40581955  0.83615393     0.07300
C3680       C  0.99194843  0.40521749  0.81079822    -0.13400
S3681       S  0.98586443  0.44544193  0.76120366    -0.30300
H3682       H  0.96608243  0.44056252  0.81837419     0.11600
S3683       S  0.98062644  0.39041318  0.86567182    -0.27400
H3684       H  0.99958203  0.39559972  0.80949076     0.08800
H3685       H  0.00665835  0.39151289  0.68536595     0.27200
H3686       H  0.97339841  0.45389974  0.77284659     0.22000
H3687       H  0.98136898  0.39983705  0.89394379     0.27300
H3688       H  0.01155003  0.43012071  0.83344373     0.16200
C3689       C  0.10436994  0.51409099  0.58354470    -0.11100
C3690       C  0.09221165  0.50386199  0.58364984     0.15400
C3691       C  0.07933479  0.50694360  0.56383621     0.02300
C3692       C  0.07854871  0.52046391  0.54585008    -0.15500
C3693       C  0.09043785  0.53102487  0.54658604    -0.10300
C3694       C  0.10372361  0.52750260  0.56481373     0.09100
C3695       C  0.09275673  0.49036377  0.60555585     0.10100
S3696       S  0.06330418  0.49430078  0.56121899    -0.24600
H3697       H  0.07152543  0.52242220  0.02135991     0.20300
S3698       S  0.12025692  0.53945897  0.56479565    -0.30300
H3699       H  0.11437007  0.51164731  0.59831284     0.10700
C3700       C  0.10213018  0.47789964  0.59819435     0.03900
C3701       C  0.10018346  0.46434307  0.61593599    -0.12600
C3702       C  0.08899812  0.46293426  0.64089712    -0.08300
C3703       C  0.08057148  0.47598822  0.65024836     0.07300
C3704       C  0.08255653  0.48949489  0.63232036    -0.13400
S3705       S  0.11580347  0.47888993  0.56463468    -0.30300
H3706       H  0.10695408  0.45458123  0.60915990     0.11600
S3707       S  0.06681327  0.47572460  0.68381263    -0.27400
H3708       H  0.07564291  0.49930317  0.63806418     0.08800
H3709       H  0.11850031  0.54424654  0.53148651     0.27200
H3710       H  0.12065360  0.46371723  0.56627296     0.22000
H3711       H  0.06273023  0.49112735  0.68252650     0.27300
H3712       H  0.07168059  0.48082576  0.56474795     0.16200
C3713       C  0.12791095  0.37362621  0.74582370    -0.11100
C3714       C  0.12647435  0.37661973  0.78007296     0.15400
C3715       C  0.11691433  0.38843627  0.79087120     0.02300
C3716       C  0.10837773  0.39645595  0.76743000    -0.15500
C3717       C  0.10935308  0.39324194  0.73305898    -0.10300
C3718       C  0.11965579  0.38194569  0.72217493     0.09100
C3719       C  0.13478313  0.36702605  0.80407936     0.10100
S3720       S  0.11476473  0.39352346  0.83427413    -0.24600
H3721       H  0.10067416  0.40513844  0.77634851     0.20300
S3722       S  0.12314340  0.37785495  0.67877420    -0.30300
H3723       H  0.13552472  0.36473999  0.73749577     0.10700
C3724       C  0.12749011  0.35524783  0.82154046     0.03900
C3725       C  0.13582247  0.34645535  0.84424956    -0.12600
C3726       C  0.15131617  0.34920321  0.84970071    -0.08300
C3727       C  0.15839020  0.36142101  0.83298415     0.07300
C3728       C  0.15012606  0.37001263  0.80998534    -0.13400
S3729       S  0.10773644  0.35109615  0.81391576    -0.30300
H3730       H  0.13040687  0.33703448  0.85680204     0.11600
S3731       S  0.17774234  0.36694765  0.84067551    -0.27400
H3732       H  0.15560678  0.37929773  0.79701905     0.08800
H3733       H  0.12303145  0.39315861  0.66888346     0.27200
H3734       H  0.10653982  0.33898131  0.83659914     0.22000
H3735       H  0.17740641  0.36341734  0.87495685     0.27300
H3736       H  0.12963204  0.38984161  0.84396288     0.16200
C3737       C  0.49312053  0.40064809  0.85400747    -0.11100
C3738       C  0.49486909  0.41222943  0.87765164     0.15400
C3739       C  0.48342037  0.42328970  0.88119379     0.02300
C3740       C  0.47127543  0.42341011  0.85889030    -0.15500
C3741       C  0.47005652  0.41245058  0.83363118    -0.10300
C3742       C  0.48081013  0.40058294  0.83208800     0.09100
C3743       C  0.50954836  0.41360052  0.89506125     0.10100
S3744       S  0.48398929  0.43783651  0.91280544    -0.24600
H3745       H  0.46297417  0.43245801  0.86052151     0.20300
S3746       S  0.48040810  0.38599512  0.80067108    -0.30300
H3747       H  0.50191052  0.39214047  0.85120331     0.10700
C3748       C  0.51475638  0.40235349  0.91712902     0.03900
C3749       C  0.52885243  0.40416708  0.93263296    -0.12600
C3750       C  0.53798338  0.41694130  0.92631612    -0.08300
C3751       C  0.53295628  0.42784349  0.90289548     0.07300
C3752       C  0.51874633  0.42615048  0.88795458    -0.13400
S3753       S  0.50317682  0.38604499  0.92675531    -0.30300
H3754       H  0.53254185  0.39577034  0.95059449     0.11600
S3755       S  0.54421333  0.44382886  0.89001017    -0.27400
H3756       H  0.51490893  0.43456028  0.87010456     0.08800
H3757       H  0.47939520  0.39628519  0.77396899     0.27200
H3758       H  0.51393434  0.37841004  0.94651313     0.22000
H3759       H  0.55781311  0.43549740  0.88814855     0.27300
H3760       H  0.49232313  0.42930640  0.93614264     0.16200
C3761       C  0.53285639  0.42402932  0.62685311    -0.11100
C3762       C  0.52118892  0.41348241  0.62240472     0.15400
C3763       C  0.52216187  0.40278563  0.59629837     0.02300
C3764       C  0.53453331  0.40322156  0.57444069    -0.15500
C3765       C  0.54586559  0.41423299  0.57793179    -0.10300
C3766       C  0.54517118  0.42453860  0.60491183     0.09100
C3767       C  0.50749105  0.41494139  0.64324855     0.10100
S3768       S  0.50753378  0.38899128  0.58836725    -0.24600
H3769       H  0.53509931  0.39778561  0.05471817     0.20300
S3770       S  0.55937003  0.43887449  0.61210424    -0.30300
H3771       H  0.53209653  0.43224134  0.64691789     0.10700
C3772       C  0.50702332  0.40934437  0.67611656     0.03900
C3773       C  0.49370988  0.41105759  0.69484601    -0.12600
C3774       C  0.48093513  0.41845057  0.68147335    -0.08300
C3775       C  0.48151314  0.42405499  0.64844397     0.07300
C3776       C  0.49480391  0.42231004  0.62980346    -0.13400
S3777       S  0.52331317  0.39992580  0.69398618    -0.30300
H3778       H  0.49331135  0.40680692  0.72020297     0.11600
S3779       S  0.46559328  0.43297407  0.62817902    -0.27400
H3780       H  0.49523484  0.42658625  0.60443802     0.08800
H3781       H  0.57150145  0.43067059  0.59812648     0.27200
H3782       H  0.51688507  0.39705486  0.72553021     0.22000
H3783       H  0.45474675  0.42293107  0.64134014     0.27300
H3784       H  0.50287119  0.38740721  0.62176399     0.16200
C3785       C  0.43124489  0.49023783  0.80756546    -0.11100
C3786       C  0.42352031  0.48793237  0.83772982     0.15400
C3787       C  0.41551019  0.47433540  0.84279155     0.02300
C3788       C  0.41668148  0.46274643  0.81914751    -0.15500
C3789       C  0.42555046  0.46445678  0.79011786    -0.10300
C3790       C  0.43212926  0.47879144  0.78346189     0.09100
C3791       C  0.42528928  0.49931151  0.86446475     0.10100
S3792       S  0.40447497  0.47072320  0.87989912    -0.24600
H3793       H  0.41128544  0.45200357  0.82456062     0.20300
S3794       S  0.44217032  0.48316907  0.74545084    -0.30300
H3795       H  0.43707156  0.50086810  0.80327581     0.10700
C3796       C  0.43540439  0.49688181  0.89120140     0.03900
C3797       C  0.43796650  0.50854971  0.91425637    -0.12600
C3798       C  0.43073215  0.52264709  0.91087218    -0.08300
C3799       C  0.41979004  0.52461273  0.88536705     0.07300
C3800       C  0.41738632  0.51303313  0.86214460    -0.13400
S3801       S  0.44599365  0.47939398  0.89443951    -0.30300
H3802       H  0.44641848  0.50703251  0.93358037     0.11600
S3803       S  0.40851770  0.54156803  0.88113893    -0.27400
H3804       H  0.40938977  0.51475577  0.84194533     0.08800
H3805       H  0.43210711  0.47507064  0.72486920     0.27200
H3806       H  0.45204261  0.48212768  0.92637388     0.22000
H3807       H  0.40804448  0.54475522  0.91556657     0.27300
H3808       H  0.40096698  0.48594711  0.88678435     0.16200
C3809       C  0.34588398  0.25357640  0.99772171    -0.11100
C3810       C  0.33124354  0.24824167  0.47815432     0.15400
C3811       C  0.31733386  0.25585120  0.48268659     0.02300
C3812       C  0.31688983  0.26901692  0.50186049    -0.15500
C3813       C  0.33005961  0.27502733  0.51644021    -0.10300
C3814       C  0.34407283  0.26751592  0.51161551     0.09100
C3815       C  0.33341429  0.23466997  0.96097590     0.10100
S3816       S  0.29971311  0.24932601  0.46491465    -0.24600
H3817       H  0.30606615  0.27463136  0.50545033     0.20300
S3818       S  0.36127169  0.27412137  0.53130939    -0.30300
H3819       H  0.35594370  0.24653178  0.99690182     0.10700
C3820       C  0.34181936  0.23357396  0.93122438     0.03900
C3821       C  0.34083148  0.22036727  0.91209011    -0.12600
C3822       C  0.33135693  0.20830216  0.92165571    -0.08300
C3823       C  0.32332225  0.20926864  0.95214654     0.07300
C3824       C  0.32444967  0.22243390  0.97145275    -0.13400
S3825       S  0.34784962  0.25051147  0.40998221    -0.30300
H3826       H  0.34690326  0.21977589  0.88860780     0.11600
S3827       S  0.31149282  0.19422980  0.96778521    -0.27400
H3828       H  0.31804737  0.22330370  0.99449951     0.08800
H3829       H  0.37085237  0.26249134  0.51973670     0.27200
H3830       H  0.35433484  0.24354920  0.38176819     0.22000
H3831       H  0.32111483  0.18251048  0.95679368     0.27300
H3832       H  0.30607716  0.24300689  0.43587448     0.16200
C3833       C  0.31212966  0.25915583  0.70249779    -0.11100
C3834       C  0.32631639  0.25283539  0.71011044     0.15400
C3835       C  0.33948092  0.25893263  0.69537825     0.02300
C3836       C  0.33816292  0.27104461  0.67315657    -0.15500
C3837       C  0.32397718  0.27743712  0.66532564    -0.10300
C3838       C  0.31078282  0.27127701  0.68017442     0.09100
C3839       C  0.32696234  0.23949946  0.73236251     0.10100
S3840       S  0.35827477  0.25178966  0.70386796    -0.24600
H3841       H  0.34840493  0.27555862  0.66197522     0.20300
S3842       S  0.29188402  0.27760447  0.67030018    -0.30300
H3843       H  0.30197121  0.25430233  0.71336640     0.10700
C3844       C  0.32288807  0.24059204  0.76626707     0.03900
C3845       C  0.32347987  0.22763242  0.78634317    -0.12600
C3846       C  0.32820633  0.21357384  0.77340108    -0.08300
C3847       C  0.33253689  0.21261246  0.73949382     0.07300
C3848       C  0.33170880  0.22552190  0.71929791    -0.13400
S3849       S  0.31707099  0.25849313  0.78413621    -0.30300
H3850       H  0.32017215  0.22845435  0.81234134     0.11600
S3851       S  0.33818996  0.19511751  0.72008789    -0.27400
H3852       H  0.33474887  0.22468047  0.69312151     0.08800
H3853       H  0.29424508  0.27718055  0.63553753     0.27200
H3854       H  0.31704639  0.25374474  0.81768349     0.22000
H3855       H  0.35113639  0.19360987  0.74034840     0.27300
H3856       H  0.35538300  0.24752102  0.73710471     0.16200
C3857       C  0.25810628  0.32982475  0.03372315    -0.11100
C3858       C  0.26003518  0.33389359  0.00020644     0.15400
C3859       C  0.27441381  0.33519067  0.47960156     0.02300
C3860       C  0.28668081  0.33381231  0.50152694    -0.15500
C3861       C  0.28449300  0.33045541  0.53559823    -0.10300
C3862       C  0.26947485  0.32988677  0.54817057     0.09100
C3863       C  0.24680206  0.33262857  0.97781446     0.10100
S3864       S  0.27848060  0.33865954  0.43608016    -0.24600
H3865       H  0.29804442  0.33456209  0.49138180     0.20300
S3866       S  0.26500136  0.32742240  0.59174809    -0.30300
H3867       H  0.24682507  0.32738963  0.04303223     0.10700
C3868       C  0.24425006  0.31925233  0.95957386     0.03900
C3869       C  0.23085861  0.31772933  0.94117845    -0.12600
C3870       C  0.21972434  0.32915258  0.94122378    -0.08300
C3871       C  0.22250534  0.34275932  0.95886767     0.07300
C3872       C  0.23603741  0.34431740  0.97704190    -0.13400
S3873       S  0.25766709  0.30375449  0.96128884    -0.30300
H3874       H  0.22874385  0.30724437  0.92794598     0.11600
S3875       S  0.20907252  0.35823938  0.95820194    -0.27400
H3876       H  0.23817166  0.35452490  0.99126390     0.08800
H3877       H  0.27669070  0.33700159  0.60290368     0.27200
H3878       H  0.24888116  0.29320859  0.94348245     0.22000
H3879       H  0.21758455  0.36837077  0.97773977     0.27300
H3880       H  0.26384668  0.34980040  0.94029954     0.16200
C3881       C  0.39505325  0.37062737  0.69451205    -0.11100
C3882       C  0.38567513  0.37683310  0.66975925     0.15400
C3883       C  0.38718655  0.39230424  0.66130511     0.02300
C3884       C  0.39838398  0.40099724  0.67693914    -0.15500
C3885       C  0.40775922  0.39479341  0.70182233    -0.10300
C3886       C  0.40608534  0.37933945  0.71043991     0.09100
C3887       C  0.37441204  0.36672523  0.65391039     0.10100
S3888       S  0.37499331  0.40179430  0.63170693    -0.24600
H3889       H  0.39948512  0.41285117  0.67027377     0.20300
S3890       S  0.41804764  0.36979247  0.74030817    -0.30300
H3891       H  0.39393894  0.35875595  0.70105173     0.10700
C3892       C  0.37547160  0.36235569  0.62011016     0.03900
C3893       C  0.36496488  0.35198685  0.60714104    -0.12600
C3894       C  0.35360298  0.34562673  0.62741051    -0.08300
C3895       C  0.35287405  0.34982716  0.66154782     0.07300
C3896       C  0.36306733  0.36047274  0.67411507    -0.13400
S3897       S  0.39063217  0.36929570  0.59389859    -0.30300
H3898       H  0.36574519  0.34865491  0.58118047     0.11600
S3899       S  0.34002360  0.34135379  0.69117315    -0.27400
H3900       H  0.36248248  0.36356248  0.70029161     0.08800
H3901       H  0.43156139  0.37638228  0.72856520     0.27200
H3902       H  0.38507682  0.36343845  0.56362181     0.22000
H3903       H  0.34292839  0.32643138  0.68048922     0.27300
H3904       H  0.36249079  0.39207233  0.63510939     0.16200
loop_ 
_geom_bond_atom_site_label_1 
_geom_bond_atom_site_label_2 
_geom_bond_distance 
_geom_bond_site_symmetry_2 
_ccdc_geom_bond_type 
O1            C4   1.266       .  A
O1           Cd6   2.442       .  S
C2           O11   1.264       .  A
C2            O7   1.268       .  A
C2         C1885   1.484       .  S
O3            C9   1.262       .  A
O3           Cd6   2.394       .  S
C4           O12   1.268       .  A
C4         C1909   1.488       .  S
C5           O10   1.268       .  A
C5            O8   1.265       .  A
C5         C1942   1.486       .  S
Cd6          O13   2.486       .  S
Cd6          O12   2.458       .  S
Cd6          O11   2.421       .  S
Cd6           O7   2.478       .  S
Cd6          O10   2.471       .  S
Cd6           O8   2.440       .  S
C9           O13   1.270       .  A
C9         C1861   1.476       .  S
O14          C17   1.267       .  A
O14         Cd19   2.444       .  S
C15          O24   1.263       .  A
C15          O20   1.269       .  A
C15        C1822   1.479       .  S
O16          C22   1.268       .  A
O16         Cd19   2.484       .  S
C17          O25   1.267       .  A
C17        C1837   1.487       .  S
C18          O23   1.267       .  A
C18          O21   1.267       .  A
C18        C1933   1.480       .  S
Cd19         O26   2.406       .  S
Cd19         O25   2.447       .  S
Cd19         O24   2.411       .  S
Cd19         O20   2.475       .  S
Cd19         O23   2.433       .  S
Cd19         O21   2.465       .  S
C22          O26   1.261       .  A
C22        C1789   1.469       .  S
O27          C30   1.265       .  A
O27         Cd32   2.458       .  S
C28          O37   1.263       .  A
C28          O33   1.269       .  A
C28        C1717   1.479       .  S
O29          C35   1.266       .  A
O29         Cd32   2.474       .  S
C30          O38   1.267       .  A
C30        C1750   1.492       .  S
C31          O36   1.264       .  A
C31          O34   1.262       .  A
C31        C1765   1.478       .  S
Cd32         O39   2.424       .  S
Cd32         O38   2.474       .  S
Cd32         O37   2.429       .  S
Cd32         O33   2.477       .  S
Cd32         O36   2.479       .  S
Cd32         O34   2.438       .  S
C35          O39   1.262       .  A
C35        C1693   1.475       .  S
O40          C43   1.268       .  A
O40         Cd45   2.448       .  S
C41          O50   1.262       .  A
C41          O46   1.267       .  A
C41        C1645   1.474       .  S
O42          C48   1.269       .  A
O42         Cd45   2.484       .  S
C43          O51   1.267       .  A
C43        C1918   1.480       .  S
C44          O49   1.266       .  A
C44          O47   1.265       .  A
C44        C1774   1.467       .  S
Cd45         O52   2.391       .  S
Cd45         O51   2.440       .  S
Cd45         O50   2.421       .  S
Cd45         O46   2.459       .  S
Cd45         O49   2.446       .  S
Cd45         O47   2.442       .  S
C48          O52   1.263       .  A
C48        C1678   1.465       .  S
O53          C56   1.270       .  A
O53         Cd58   2.488       .  S
C54          O63   1.265       .  A
C54          O59   1.270       .  A
C54        C1573   1.487       .  S
O55          C61   1.271       .  A
O55         Cd58   2.492       .  S
C56          O64   1.264       .  A
C56        C1846   1.480       .  S
C57          O60   1.268       .  A
C57        O2014   1.269       .  A
C57        C1621   1.481       .  S
Cd58         O65   2.398       .  S
Cd58         O64   2.425       .  S
Cd58         O62   2.463       .  S
Cd58       O2015   2.423       .  S
Cd58       O2011   2.458       .  S
Cd58       O2012   2.433       .  S
O59       Cd2010   2.483   1_554  S
O60       Cd2010   2.436       .  S
C61          O65   1.262       .  A
C61        C1606   1.474       .  S
O62        C2009   1.270       .  A
O63       Cd2010   2.410   1_554  S
O66          C69   1.270       .  A
O66         Cd71   2.480       .  S
C67          O76   1.265       .  A
C67          O72   1.271       .  A
C67        C1510   1.474   1_554  S
O68          C74   1.272       .  A
O68         Cd71   2.483       .  S
C69          O77   1.265       .  A
C69        C1549   1.477       .  S
C70          O75   1.269       .  A
C70          O73   1.266       .  A
C70        C1630   1.474       .  S
Cd71         O78   2.397       .  S
Cd71         O77   2.417       .  S
Cd71         O76   2.406       .  S
Cd71         O72   2.465       .  S
Cd71         O75   2.460       .  S
Cd71         O73   2.426       .  S
C74          O78   1.263       .  A
C74        C1534   1.474       .  S
O79          C82   1.267       .  A
O79         Cd84   2.436       .  S
C80          O89   1.263       .  A
C80          O85   1.266       .  A
C80        C1453   1.477       .  S
O81        C2039   1.270       .  A
O81         Cd84   2.500       .  S
C82        O2042   1.268       .  A
C82        C3693   1.480       .  S
C83          O88   1.268       .  A
C83          O86   1.264       .  A
C83        C1477   1.487       .  S
Cd84         O91   2.419       .  S
Cd84         O89   2.440       .  S
Cd84         O85   2.465       .  S
Cd84         O88   2.487       .  S
Cd84         O86   2.469       .  S
Cd84       O2042   2.460       .  S
C87        O2033   1.271       .  A
C87        O2043   1.263       .  A
C87        C1429   1.471       .  S
O90        C2034   1.265       .  A
O90       Cd2036   2.451       .  S
O91        C2039   1.262       .  A
O92          C95   1.271       .  A
O92         Cd97   2.461       .  S
C93         O102   1.263       .  A
C93          O98   1.272       .  A
C93        C1381   1.471       .  S
O94         C100   1.272       .  A
O94         Cd97   2.482       .  S
C95         O103   1.267       .  A
C95        C1558   1.484       .  S
C96         O101   1.270       .  A
C96          O99   1.268       .  A
C96        C1486   1.482       .  S
Cd97        O104   2.384       .  S
Cd97        O103   2.432       .  S
Cd97        O102   2.399       .  S
Cd97         O98   2.477       .  S
Cd97        O101   2.445       .  S
Cd97         O99   2.455       .  S
C100        O104   1.263       .  A
C100       C1414   1.469       .  S
O105        C108   1.269       .  A
O105       Cd110   2.471       .  S
C106        O115   1.265       .  A
C106        O111   1.271       .  A
C106       C1597   1.479       .  S
O107        C113   1.268       .  A
O107       Cd110   2.462       .  S
C108        O116   1.265       .  A
C108       C1333   1.480       .  S
C109        O114   1.270       .  A
C109        O112   1.262       .  A
C109       C1582   1.474       .  S
Cd110       O117   2.446       .  S
Cd110       O116   2.442       .  S
Cd110       O115   2.424       .  S
Cd110       O111   2.479       .  S
Cd110       O114   2.500       .  S
Cd110       O112   2.395       .  S
C113        O117   1.267       .  A
C113       C1366   1.483       .  S
O118        C121   1.270       .  A
O118       Cd123   2.482       .  S
C119        O128   1.267       .  A
C119        O124   1.270       .  A
C119       C1309   1.484       .  S
O120        C126   1.271       .  A
O120       Cd123   2.483       .  S
C121        O129   1.262       .  A
C121       C1270   1.481       .  S
C122        O127   1.269       .  A
C122        O125   1.265       .  A
C122       C1357   1.483       .  S
Cd123       O130   2.393       .  S
Cd123       O129   2.415       .  S
Cd123       O128   2.438       .  S
Cd123       O124   2.456       .  S
Cd123       O127   2.483       .  S
Cd123       O125   2.416       .  S
C126        O130   1.263       .  A
C126       C1285   1.471       .  S
O131        C134   1.271       .  A
O131       Cd136   2.463       .  S
C132        O141   1.265       .  A
C132        O137   1.270       .  A
C132       C1213   1.478       .  S
O133        C139   1.271       .  A
O133       Cd136   2.493       .  S
C134        O142   1.265       .  A
C134       C1174   1.481       .  S
C135        O140   1.271       .  A
C135        O138   1.266       .  A
C135       C1246   1.485       .  S
Cd136       O143   2.400       .  S
Cd136       O142   2.419       .  S
Cd136       O141   2.424       .  S
Cd136       O137   2.470       .  S
Cd136       O140   2.460       .  S
Cd136       O138   2.431       .  S
C139        O143   1.263       .  A
C139       C1189   1.471       .  S
O144        C147   1.269       .  A
O144       Cd149   2.460       .  S
C145        O150   1.271       .  A
C145       O2106   1.265       .  A
C145       C3294   1.481       .  S
O146        C152   1.270       .  A
O146      Cd2101   2.475   1_554  S
C147        O155   1.265       .  A
C147       C1798   1.481       .  S
C148        O153   1.269       .  A
C148        O151   1.266       .  A
C148       C1237   1.479       .  S
Cd149       O156   2.412       .  S
Cd149       O155   2.426       .  S
Cd149       O150   2.468       .  S
Cd149       O153   2.462       .  S
Cd149       O151   2.435       .  S
Cd149      O2098   2.479       .  S
Cd149      O2106   2.405       .  S
C152       O2108   1.262       .  A
C152       C1813   1.466       .  S
O154       C2097   1.265       .  A
O154      Cd2101   2.397   1_554  S
O156       C2104   1.263       .  A
O157        C160   1.269       .  A
O157       Cd162   2.459       .  S
C158        O167   1.264       .  A
C158        O163   1.271       .  A
C158       C1093   1.474       .  S
O159        C165   1.268       .  A
O159       Cd162   2.460       .  S
C160        O168   1.265       .  A
C160       C1318   1.475       .  S
C161        O166   1.270       .  A
C161        O164   1.262       .  A
C161       C1126   1.476       .  S
Cd162       O169   2.453       .  S
Cd162       O168   2.430       .  S
Cd162       O167   2.399       .  S
Cd162       O163   2.473       .  S
Cd162       O166   2.493       .  S
Cd162       O164   2.422       .  S
C165        O169   1.267       .  A
C165       C1141   1.479       .  S
O170        C173   1.268       .  A
O170       Cd175   2.464       .  S
C171        O180   1.266       .  A
C171        O176   1.268       .  A
C171       C1078   1.481       .  S
O172        C178   1.272       .  A
O172       Cd175   2.507       .  S
C173        O181   1.265       .  A
C173       C1438   1.483       .  S
C174        O179   1.269       .  A
C174        O177   1.264       .  A
C174       C1150   1.477       .  S
Cd175       O182   2.395       .  S
Cd175       O181   2.452       .  S
Cd175       O180   2.456       .  S
Cd175       O176   2.450       .  S
Cd175       O179   2.488       .  S
Cd175       O177   2.439       .  S
C178        O182   1.262       .  A
C178       C1462   1.476       .  S
O183        C186   1.271       .  A
O183       Cd188   2.471       .  S
C184        O193   1.264       .  A
C184        O189   1.271       .  A
C184       C1222   1.478       .  S
O185        C191   1.270       .  A
O185       Cd188   2.480       .  S
C186        O194   1.264       .  A
C186       C1006   1.475       .  S
C187        O192   1.269       .  A
C187        O190   1.267       .  A
C187       C1045   1.475       .  S
Cd188       O195   2.406       .  S
Cd188       O194   2.418       .  S
Cd188       O193   2.415       .  S
Cd188       O189   2.464       .  S
Cd188       O192   2.441       .  S
Cd188       O190   2.430       .  S
C191        O195   1.263       .  A
C191       C1030   1.470       .  S
O196        C199   1.268       .  A
O196      Cd2153   2.481       .  S
C197        O206   1.265       .  A
C197        O202   1.270       .  A
C197       C1069   1.487       .  S
O198        C204   1.271       .  A
O198       Cd201   2.478       .  S
C199        O207   1.263       .  A
C199       C1702   1.483       .  S
C200        O203   1.263       .  A
C200       O2157   1.269       .  A
C200       C1054   1.487       .  S
Cd201       O208   2.382       .  S
Cd201       O206   2.434       .  S
Cd201       O202   2.446       .  S
Cd201       O205   2.450       .  S
Cd201      O2148   2.464       .  S
Cd201      O2159   2.425       .  S
Cd201      O2155   2.416       .  S
O203      Cd2153   2.422       .  S
C204        O208   1.263       .  A
C204       C1726   1.466       .  S
O205       C2152   1.269       .  A
O207      Cd2153   2.433       .  S
O209        C212   1.271       .  A
O209       Cd214   2.476       .  S
C210        O219   1.265       .  A
C210        O215   1.270       .  A
C210        C958   1.483       .  S
O211        C217   1.271       .  A
O211       Cd214   2.478       .  S
C212        O220   1.265       .  A
C212       C1870   1.478       .  S
C213        O218   1.269       .  A
C213        O216   1.266       .  A
C213        C973   1.484       .  S
Cd214       O221   2.405       .  S
Cd214       O220   2.415       .  S
Cd214       O219   2.435       .  S
Cd214       O215   2.477       .  S
Cd214       O218   2.470       .  S
Cd214       O216   2.443       .  S
C217        O221   1.263       .  A
C217       C1894   1.477       .  S
O222        C225   1.269       .  A
O222       Cd227   2.449       .  S
C223        O228   1.266       .  A
C223       O2184   1.264       .  A
C223       C2886   1.471       .  S
O224       C2182   1.269       .  A
O224       Cd227   2.496       .  S
C225        O233   1.267       .  A
C225        C877   1.480       .  S
C226        O231   1.269       .  A
C226        O229   1.264       .  A
C226        C982   1.487       .  S
Cd227       O234   2.422       .  S
Cd227       O233   2.401       .  S
Cd227       O228   2.462       .  S
Cd227       O231   2.470       .  S
Cd227       O229   2.438       .  S
Cd227      O2184   2.430       .  S
C230       O2176   1.268       .  A
C230       O2186   1.260   1_554  A
C230        C901   1.471       .  S
O232       C2175   1.263   1_554  A
O232      Cd2179   2.442   1_554  S
O234       C2182   1.261       .  A
O235        C238   1.270       .  A
O235       Cd240   2.492       .  S
C236        O245   1.266       .  A
C236        O241   1.270       .  A
C236        C949   1.486       .  S
O237        C243   1.269       .  A
O237       Cd240   2.473       .  S
C238        O246   1.262       .  A
C238       C1669   1.478       .  S
C239        O244   1.268       .  A
C239        O242   1.265       .  A
C239        C853   1.472       .  S
Cd240       O247   2.389       .  S
Cd240       O246   2.421       .  S
Cd240       O245   2.445       .  S
Cd240       O241   2.465       .  S
Cd240       O244   2.467       .  S
Cd240       O242   2.413       .  S
C243        O247   1.263       .  A
C243       C1654   1.466       .  S
O248        C251   1.270       .  A
O248      Cd2205   2.474   1_554  S
C249        O258   1.265       .  A
C249        O254   1.269       .  A
C249        C829   1.484       .  S
O250        C256   1.270       .  A
O250       Cd253   2.489       .  S
C251        O259   1.263   1_554  A
C251        C805   1.476       .  S
C252        O255   1.266       .  A
C252       O2209   1.268       .  A
C252        C862   1.471       .  S
Cd253       O260   2.408       .  S
Cd253       O258   2.438       .  S
Cd253       O254   2.470       .  S
Cd253       O257   2.447       .  S
Cd253      O2200   2.478       .  S
Cd253      O2211   2.413       .  S
Cd253      O2207   2.447       .  S
O255      Cd2205   2.422       .  S
C256        O260   1.263       .  A
C256        C781   1.474       .  S
O257       C2204   1.268       .  A
O259      Cd2205   2.408       .  S
O261        C264   1.268       .  A
O261       Cd266   2.456       .  S
C262        O271   1.266       .  A
C262        O267   1.269       .  A
C262        C925   1.479       .  S
O263        C269   1.270       .  A
O263       Cd266   2.492       .  S
C264        O272   1.263       .  A
C264        C742   1.475       .  S
C265        O270   1.268       .  A
C265        O268   1.265       .  A
C265        C757   1.481       .  S
Cd266       O273   2.390       .  S
Cd266       O272   2.419       .  S
Cd266       O271   2.425       .  S
Cd266       O267   2.447       .  S
Cd266       O270   2.467       .  S
Cd266       O268   2.437       .  S
C269        O273   1.262       .  A
C269        C709   1.470       .  S
O274        C277   1.270       .  A
O274       Cd279   2.472       .  S
C275        O284   1.263       .  A
C275        O280   1.271       .  A
C275       C1525   1.474       .  S
O276        C282   1.269       .  A
O276       Cd279   2.451       .  S
C277        O285   1.265       .  A
C277        C685   1.476       .  S
C278        O283   1.269       .  A
C278        O281   1.264       .  A
C278       C1501   1.483       .  S
Cd279       O286   2.443       .  S
Cd279       O285   2.425       .  S
Cd279       O284   2.383       .  S
Cd279       O280   2.491       .  S
Cd279       O283   2.490       .  S
Cd279       O281   2.403       .  S
C282        O286   1.267       .  A
C282        C766   1.483       .  S
O287        C290   1.268       .  A
O287       Cd292   2.455       .  S
C288        O297   1.267       .  A
C288        O293   1.268       .  A
C288        C838   1.482       .  S
O289        C295   1.270       .  A
O289       Cd292   2.478       .  S
C290        O298   1.264       .  A
C290        C646   1.475       .  S
C291        O296   1.268       .  A
C291        O294   1.264       .  A
C291        C670   1.475       .  S
Cd292       O299   2.384       .  S
Cd292       O298   2.446       .  S
Cd292       O297   2.450       .  S
Cd292       O293   2.441       .  S
Cd292       O296   2.454       .  S
Cd292       O294   2.420       .  S
C295        O299   1.263       .  A
C295        C622   1.469       .  S
O300        C303   1.272       .  A
O300       Cd305   2.473       .  S
C301        O310   1.265       .  A
C301        O306   1.270       .  A
C301        C694   1.478       .  S
O302        C308   1.271       .  A
O302       Cd305   2.490       .  S
C303        O311   1.265       .  A
C303       C1405   1.476       .  S
C304        O309   1.270       .  A
C304        O307   1.266       .  A
C304        C661   1.471       .  S
Cd305       O312   2.391       .  S
Cd305       O311   2.389       .  S
Cd305       O310   2.418       .  S
Cd305       O306   2.465       .  S
Cd305       O309   2.453       .  S
Cd305       O307   2.396       .  S
C308        O312   1.263       .  A
C308       C1390   1.474       .  S
O313        C316   1.270       .  A
O313       Cd318   2.470       .  S
C314        O323   1.262       .  A
C314        O319   1.269       .  A
C314       C1198   1.479       .  S
O315        C321   1.269       .  A
O315       Cd318   2.480       .  S
C316        O324   1.265       .  A
C316        C574   1.477       .  S
C317        O322   1.268       .  A
C317        O320   1.265       .  A
C317        C589   1.487       .  S
Cd318       O325   2.388       .  S
Cd318       O324   2.433       .  S
Cd318       O323   2.424       .  S
Cd318       O319   2.476       .  S
Cd318       O322   2.438       .  S
Cd318       O320   2.448       .  S
C321        O325   1.263       .  A
C321       C1165   1.467       .  S
O326        C329   1.268       .  A
O326       Cd331   2.472       .  S
C327        O336   1.262       .  A
C327        O332   1.272       .  A
C327        C910   1.482       .  S
O328        C334   1.270       .  A
O328       Cd331   2.480       .  S
C329        O337   1.267       .  A
C329        C550   1.493       .  S
C330        O335   1.268       .  A
C330        O333   1.267       .  A
C330        C598   1.479       .  S
Cd331       O338   2.393       .  S
Cd331       O337   2.461       .  S
Cd331       O336   2.407       .  S
Cd331       O332   2.491       .  S
Cd331       O335   2.459       .  S
Cd331       O333   2.429       .  S
C334        O338   1.262       .  A
C334        C886   1.472       .  S
O339        C342   1.271       .  A
O339       Cd344   2.467       .  S
C340        O349   1.265       .  A
C340        O345   1.269       .  A
C340        C493   1.475       .  S
O341        C347   1.270       .  A
O341       Cd344   2.481       .  S
C342        O350   1.265       .  A
C342       C1294   1.472       .  S
C343        O348   1.273       .  A
C343        O346   1.263       .  A
C343       C1261   1.474       .  S
Cd344       O351   2.424       .  S
Cd344       O350   2.404       .  S
Cd344       O349   2.428       .  S
Cd344       O345   2.469       .  S
Cd344       O348   2.502       .  S
Cd344       O346   2.383       .  S
C347        O351   1.265       .  A
C347        C517   1.483       .  S
O352        C355   1.271       .  A
O352       Cd357   2.471       .  S
C353        O362   1.265       .  A
C353        O358   1.272       .  A
C353        C718   1.473       .  S
O354        C360   1.273       .  A
O354       Cd357   2.493       .  S
C355        O363   1.267       .  A
C355        C541   1.484       .  S
C356        O359   1.265       .  A
C356       O2313   1.273       .  A
C356        C526   1.479       .  S
Cd357       O364   2.379       .  S
Cd357       O363   2.438       .  S
Cd357       O361   2.468       .  S
Cd357      O2314   2.415       .  S
Cd357      O2310   2.470       .  S
Cd357      O2311   2.411       .  S
O358      Cd2309   2.457       .  S
O359      Cd2309   2.400       .  S
C360        O364   1.264       .  A
C360        C733   1.475       .  S
O361       C2308   1.271       .  A
O362      Cd2309   2.400       .  S
O365        C368   1.269       .  A
O365       Cd370   2.435       .  S
C366        O375   1.263       .  A
C366        O371   1.270       .  A
C366        C613   1.470       .  S
O367        C373   1.273       .  A
O367       Cd370   2.505       .  S
C368       O2328   1.268       .  A
C368       C2397   1.473       .  S
C369        O374   1.271       .  A
C369        O372   1.265       .  A
C369        C469   1.476       .  S
Cd370       O377   2.380       .  S
Cd370       O375   2.406       .  S
Cd370       O371   2.459       .  S
Cd370       O374   2.464       .  S
Cd370       O372   2.434       .  S
Cd370      O2328   2.426       .  S
C373        O377   1.263       .  A
C373       C2589   1.483       .  S
O376       C2320   1.267       .  A
O376      Cd2322   2.425   1_554  S
O378        C381   1.270       .  A
O378       Cd383   2.482       .  S
C379        O388   1.264       .  A
C379        O384   1.271       .  A
C379       C1117   1.475       .  S
O380        C386   1.271       .  A
O380       Cd383   2.483       .  S
C381        O389   1.265       .  A
C381        C502   1.480       .  S
C382        O387   1.269       .  A
C382        O385   1.266       .  A
C382        C478   1.487       .  S
Cd383       O390   2.397       .  S
Cd383       O389   2.432       .  S
Cd383       O388   2.410       .  S
Cd383       O384   2.480       .  S
Cd383       O387   2.472       .  S
Cd383       O385   2.439       .  S
C386        O390   1.264       .  A
C386       C1102   1.482       .  S
O391        C394   1.269       .  A
O391       Cd396   2.456       .  S
C392        O401   1.265       .  A
C392        O397   1.271       .  A
C392        C790   1.476       .  S
O393        C399   1.272       .  A
O393       Cd396   2.482       .  S
C394        O402   1.266       .  A
C394        C454   1.486       .  S
C395        O400   1.271       .  A
C395        O398   1.266       .  A
C395        C421   1.478       .  S
Cd396       O403   2.377       .  S
Cd396       O402   2.414       .  S
Cd396       O401   2.412       .  S
Cd396       O397   2.466       .  S
Cd396       O400   2.451       .  S
Cd396       O398   2.409       .  S
C399        O403   1.263       .  A
C399        C814   1.470       .  S
O404        C407   1.269       .  A
O404       Cd409   2.454       .  S
C405        O414   1.264       .  A
C405        O410   1.271       .  A
C405       C1021   1.476       .  S
O406        C412   1.271       .  A
O406       Cd409   2.497       .  S
C407        O415   1.266       .  A
C407        C565   1.472       .  S
C408        O413   1.270       .  A
C408        O411   1.265       .  A
C408        C430   1.484       .  S
Cd409       O416   2.394       .  S
Cd409       O415   2.431       .  S
Cd409       O414   2.402       .  S
Cd409       O410   2.478       .  S
Cd409       O413   2.473       .  S
Cd409       O411   2.398       .  S
C412        O416   1.265       .  A
C412        C997   1.486       .  S
C417        C418   1.400       .  A
C417        C422   1.396       .  A
C417        H427   1.084       .  S
C418        C423   1.474       .  S
C418        C419   1.410       .  A
C419        C420   1.397       .  A
C419        S424   1.805       .  S
C420        C421   1.405       .  A
C420        H425   1.084       .  S
C421        C422   1.417       .  A
C422        S426   1.803       .  S
C423        C428   1.405       .  A
C423        C432   1.402       .  A
S424        H440   1.406       .  S
S426        H437   1.408       .  S
C428        C429   1.398       .  A
C428        S433   1.808       .  S
C429        C430   1.409       .  A
C429        H434   1.082       .  S
C430        C431   1.416       .  A
C431        C432   1.399       .  A
C431        S435   1.801       .  S
C432        H436   1.084       .  S
S433        H438   1.407       .  S
S435        H439   1.407       .  S
C441        C442   1.401   1_565  A
C441        C446   1.398       .  A
C441        H451   1.084       .  S
C442        C447   1.476       .  S
C442        C443   1.414       .  A
C443        C444   1.398   1_545  A
C443        S448   1.807       .  S
C444        C445   1.404       .  A
C444       H2401   1.084       .  S
C445       C2320   1.474       .  S
C445        C446   1.412       .  A
C446        S450   1.802       .  S
C447        C452   1.405       .  A
C447        C456   1.401       .  A
S448        H464   1.404       .  S
H449       C2396   1.084       .  S
S450        H461   1.407       .  S
C452        C453   1.400       .  A
C452        S457   1.807       .  S
C453        C454   1.410       .  A
C453        H458   1.082       .  S
C454        C455   1.417       .  A
C455        C456   1.398       .  A
C455        S459   1.801       .  S
C456        H460   1.084   1_545  S
S457        H462   1.407       .  S
S459        H463   1.408       .  S
C465        C466   1.402       .  A
C465        C470   1.398       .  A
C465        H475   1.084       .  S
C466        C471   1.481       .  S
C466        C467   1.412       .  A
C467        C468   1.400       .  A
C467        S472   1.804       .  S
C468        C469   1.405       .  A
C468        H473   1.084       .  S
C469        C470   1.413       .  A
C470        S474   1.803       .  S
C471        C476   1.409       .  A
C471        C480   1.399       .  A
S472        H488   1.406       .  S
S474        H485   1.407       .  S
C476        C477   1.405       .  A
C476        S481   1.806       .  S
C477        C478   1.408       .  A
C477        H482   1.082       .  S
C478        C479   1.419       .  A
C479        C480   1.396       .  A
C479        S483   1.802       .  S
C480        H484   1.084       .  S
S481        H486   1.407       .  S
S483        H487   1.407       .  S
C489        C490   1.401       .  A
C489        C494   1.395       .  A
C489        H499   1.084       .  S
C490        C495   1.482       .  S
C490        C491   1.414       .  A
C491        C492   1.402       .  A
C491        S496   1.803       .  S
C492        C493   1.404       .  A
C492        H497   1.084       .  S
C493        C494   1.414       .  A
C494        S498   1.803       .  S
C495        C500   1.411       .  A
C495        C504   1.399       .  A
S496        H512   1.406       .  S
S498        H509   1.407       .  S
C500        C501   1.407       .  A
C500        S505   1.806       .  S
C501        C502   1.405       .  A
C501        H506   1.082       .  S
C502        C503   1.417       .  A
C503        C504   1.395       .  A
C503        S507   1.803       .  S
C504        H508   1.084       .  S
S505        H510   1.407       .  S
S507        H511   1.407       .  S
C513        C514   1.403       .  A
C513        C518   1.402       .  A
C513        H523   1.084       .  S
C514        C519   1.477       .  S
C514        C515   1.409       .  A
C515        C516   1.396       .  A
C515       S2472   1.805   1_554  S
C516        C517   1.407       .  A
C516        H521   1.084       .  S
C517        C518   1.415       .  A
C518        S522   1.801       .  S
C519        C524   1.410   1_554  A
C519        C528   1.399       .  A
S520       C2467   1.806       .  S
S520        H536   1.405       .  S
S522        H533   1.407       .  S
C524        C525   1.404       .  A
C524        S529   1.807       .  S
C525        C526   1.405       .  A
C525        H530   1.083       .  S
C526        C527   1.416       .  A
C527        C528   1.397   1_556  A
C527        S531   1.803       .  S
C528        H532   1.084       .  S
S529        H534   1.407       .  S
S531       H2487   1.408       .  S
H535       S2483   1.408       .  S
C537        C538   1.402       .  A
C537        C542   1.402       .  A
C537        H547   1.084       .  S
C538        C543   1.483   1_565  S
C538        C539   1.414       .  A
C539        C540   1.400       .  A
C539        S544   1.805   1_565  S
C540        C541   1.404       .  A
C540        H545   1.084       .  S
C541        C542   1.416       .  A
C542        S546   1.803       .  S
C543        C548   1.407       .  A
C543        C552   1.400   1_545  A
S544        H560   1.405       .  S
S546        H557   1.408       .  S
C548        C549   1.406       .  A
C548        S553   1.805       .  S
C549        C550   1.411       .  A
C549        H554   1.082       .  S
C550        C551   1.419       .  A
C551        C552   1.399   1_545  A
C551        S555   1.800       .  S
C552        H556   1.084       .  S
S553        H558   1.407       .  S
S555        H559   1.408       .  S
C561        C562   1.404       .  A
C561        C566   1.396       .  A
C561        H571   1.083       .  S
C562        C567   1.487       .  S
C562        C563   1.415       .  A
C563        C564   1.401       .  A
C563        S568   1.804       .  S
C564        C565   1.403       .  A
C564        H569   1.084       .  S
C565        C566   1.412       .  A
C566        S570   1.804       .  S
C567        C576   1.402       .  A
C567       C2524   1.412       .  A
S568        H584   1.407       .  S
S570        H581   1.407       .  S
C572        C573   1.406       .  A
C572       C2519   1.412   1_554  A
C572        S577   1.805       .  S
C573        C574   1.404       .  A
C573        H578   1.083       .  S
C574        C575   1.415   1_554  A
C575       C2528   1.393       .  A
C575        S579   1.800       .  S
C576       C2527   1.395       .  A
C576        H580   1.084       .  S
S577        H582   1.407       .  S
S579        H583   1.405       .  S
C585        C586   1.400       .  A
C585        C590   1.404       .  A
C585        H595   1.083       .  S
C586        C591   1.475       .  S
C586        C587   1.408       .  A
C587        C588   1.394       .  A
C587        S592   1.805       .  S
C588        C589   1.407       .  A
C588        H593   1.083       .  S
C589        C590   1.421       .  A
C590        S594   1.809       .  S
C591        C596   1.407       .  A
C591        C600   1.401       .  A
S592        H608   1.405       .  S
S594        H605   1.407       .  S
C596        C597   1.400       .  A
C596        S601   1.806       .  S
C597        C598   1.406       .  A
C597        H602   1.083       .  S
C598        C599   1.417       .  A
C599        C600   1.398       .  A
C599        S603   1.802       .  S
C600        H604   1.084       .  S
S601        H606   1.407       .  S
S603        H607   1.408       .  S
C609        C610   1.397       .  A
C609        C614   1.395   1_455  A
C609        H619   1.084       .  S
C610        C615   1.468       .  S
C610        C611   1.413   1_455  A
C611        C612   1.396       .  A
C611        S616   1.806       .  S
C612        C613   1.401       .  A
C612        H617   1.084       .  S
C613        C614   1.417       .  A
C614        S618   1.804   1_655  S
C615        C620   1.405       .  A
C615        C624   1.401       .  A
S616        H632   1.404   1_655  S
S618        H629   1.406   1_455  S
C620        C621   1.396       .  A
C620        S625   1.808       .  S
C621        C622   1.404       .  A
C621        H626   1.083       .  S
C622        C623   1.414       .  A
C623        C624   1.399       .  A
C623        S627   1.801       .  S
C624        H628   1.084       .  S
S625        H630   1.407       .  S
S627        H631   1.407       .  S
C633        C634   1.404   1_655  A
C633        C638   1.403       .  A
C633        H643   1.084       .  S
C634        C639   1.474       .  S
C634        C635   1.407       .  A
C635        C636   1.391   1_455  A
C635        S640   1.805       .  S
C636        C637   1.407       .  A
C636       H2593   1.084       .  S
C637       C2325   1.479       .  S
C637        C638   1.413       .  A
C638        S642   1.800       .  S
C639        C644   1.408       .  A
C639        C648   1.400       .  A
S640        H656   1.406       .  S
H641       C2588   1.084       .  S
S642        H653   1.407       .  S
C644        C645   1.399       .  A
C644        S649   1.807       .  S
C645        C646   1.404       .  A
C645        H650   1.083       .  S
C646        C647   1.416       .  A
C647        C648   1.399       .  A
C647        S651   1.802       .  S
C648        H652   1.084       .  S
S649        H654   1.407       .  S
S651        H655   1.404       .  S
C657        C658   1.398       .  A
C657        C662   1.393       .  A
C657        H667   1.084       .  S
C658        C663   1.468       .  S
C658        C659   1.412       .  A
C659        C660   1.398       .  A
C659        S664   1.807       .  S
C660        C661   1.404       .  A
C660        H665   1.084       .  S
C661        C662   1.413       .  A
C662        S666   1.803       .  S
C663        C668   1.407       .  A
C663        C672   1.396       .  A
S664        H680   1.404       .  S
S666        H677   1.408       .  S
C668        C669   1.401       .  A
C668        S673   1.806       .  S
C669        C670   1.405       .  A
C669        H674   1.083       .  S
C670        C671   1.418       .  A
C671        C672   1.393       .  A
C671        S675   1.802       .  S
C672        H676   1.084       .  S
S673        H678   1.407       .  S
S675        H679   1.405       .  S
C681        C682   1.400       .  A
C681        C686   1.398       .  A
C681        H691   1.084       .  S
C682        C687   1.474       .  S
C682        C683   1.414       .  A
C683        C684   1.398       .  A
C683        S688   1.807       .  S
C684        C685   1.403       .  A
C684        H689   1.084       .  S
C685        C686   1.415       .  A
C686        S690   1.803       .  S
C687        C696   1.400       .  A
C687       C2644   1.409       .  A
S688        H704   1.404       .  S
S690        H701   1.408       .  S
C692        C693   1.402       .  A
C692       C2639   1.409   1_554  A
C692        S697   1.806       .  S
C693        C694   1.405       .  A
C693        H698   1.083       .  S
C694        C695   1.415   1_554  A
C695       C2648   1.399       .  A
C695        S699   1.803       .  S
C696       C2647   1.399       .  A
C696        H700   1.084       .  S
S697        H702   1.407       .  S
S699        H703   1.408   1_556  S
C705        C706   1.403       .  A
C705        C710   1.401       .  A
C705        H715   1.084       .  S
C706        C711   1.473       .  S
C706        C707   1.409       .  A
C707        C708   1.393       .  A
C707        S712   1.805       .  S
C708        C709   1.403       .  A
C708        H713   1.084       .  S
C709        C710   1.413       .  A
C710        S714   1.802       .  S
C711        C716   1.411       .  A
C711        C720   1.396       .  A
S712        H728   1.406       .  S
S714        H725   1.407       .  S
C716        C717   1.401       .  A
C716        S721   1.807       .  S
C717        C718   1.402   1_554  A
C717        H722   1.083       .  S
C718        C719   1.418       .  A
C719        C720   1.394   1_556  A
C719        S723   1.803       .  S
C720        H724   1.084       .  S
S721        H726   1.407       .  S
S723        H727   1.404       .  S
C729        C730   1.403       .  A
C729        C734   1.401       .  A
C729        H739   1.084       .  S
C730        C735   1.472       .  S
C730        C731   1.408       .  A
C731        C732   1.392       .  A
C731        S736   1.806       .  S
C732        C733   1.406       .  A
C732        H737   1.084       .  S
C733        C734   1.412       .  A
C734        S738   1.800       .  S
C735        C740   1.409       .  A
C735        C744   1.398       .  A
S736        H752   1.405       .  S
S738        H749   1.407       .  S
C740        C741   1.400       .  A
C740        S745   1.808       .  S
C741        C742   1.405       .  A
C741        H746   1.083       .  S
C742        C743   1.416       .  A
C743        C744   1.396       .  A
C743        S747   1.803       .  S
C744        H748   1.084       .  S
S745        H750   1.407       .  S
S747        H751   1.408       .  S
C753        C754   1.402       .  A
C753        C758   1.401       .  A
C753        H763   1.084       .  S
C754        C759   1.476       .  S
C754        C755   1.408       .  A
C755        C756   1.397       .  A
C755        S760   1.804       .  S
C756        C757   1.406       .  A
C756        H761   1.084       .  S
C757        C758   1.416       .  A
C758        S762   1.802       .  S
C759        C764   1.406       .  A
C759        C768   1.399       .  A
S760        H776   1.404       .  S
S762        H773   1.408       .  S
C764        C765   1.403       .  A
C764        S769   1.806       .  S
C765        C766   1.408       .  A
C765        H770   1.082       .  S
C766        C767   1.417       .  A
C767        C768   1.398       .  A
C767        S771   1.802       .  S
C768        H772   1.084       .  S
S769        H774   1.406       .  S
S771        H775   1.408       .  S
C777        C778   1.399       .  A
C777        C782   1.396       .  A
C777        H787   1.084       .  S
C778        C783   1.475       .  S
C778        C779   1.413       .  A
C779        C780   1.400       .  A
C779        S784   1.805       .  S
C780        C781   1.403       .  A
C780        H785   1.084       .  S
C781        C782   1.416       .  A
C782        S786   1.805       .  S
C783        C788   1.408   1_455  A
C783        C792   1.400   1_455  A
S784        H800   1.405       .  S
S786        H797   1.407       .  S
C788        C789   1.401       .  A
C788        S793   1.807   1_655  S
C789        C790   1.404       .  A
C789        H794   1.082       .  S
C790        C791   1.414       .  A
C791        C792   1.402       .  A
C791        S795   1.808       .  S
C792        H796   1.083       .  S
S793        H798   1.407       .  S
S795        H799   1.407       .  S
C801        C802   1.399       .  A
C801        C806   1.396       .  A
C801        H811   1.084       .  S
C802        C807   1.471       .  S
C802        C803   1.414       .  A
C803        C804   1.398       .  A
C803        S808   1.808       .  S
C804        C805   1.403       .  A
C804        H809   1.084       .  S
C805        C806   1.416       .  A
C806        S810   1.804       .  S
C807        C812   1.405       .  A
C807        C816   1.403       .  A
S808        H824   1.402       .  S
S810        H821   1.408       .  S
C812        C813   1.397       .  A
C812        S817   1.806       .  S
C813        C814   1.406   1_455  A
C813        H818   1.083       .  S
C814        C815   1.412       .  A
C815        C816   1.399   1_655  A
C815        S819   1.802       .  S
C816        H820   1.084       .  S
S817        H822   1.407       .  S
S819        H823   1.407       .  S
C825        C826   1.401       .  A
C825        C830   1.400       .  A
C825        H835   1.084       .  S
C826        C831   1.480   1_545  S
C826        C827   1.413       .  A
C827        C828   1.398       .  A
C827        S832   1.805   1_545  S
C828        C829   1.405       .  A
C828        H833   1.084       .  S
C829        C830   1.417       .  A
C830        S834   1.802       .  S
C831        C836   1.410       .  A
C831        C840   1.402       .  A
S832        H848   1.406       .  S
S834        H845   1.408       .  S
C836        C837   1.400       .  A
C836        S841   1.808   1_565  S
C837        C838   1.406       .  A
C837        H842   1.082       .  S
C838        C839   1.417       .  A
C839        C840   1.400       .  A
C839        S843   1.802       .  S
C840        H844   1.084       .  S
S841        H846   1.407       .  S
S843        H847   1.407       .  S
C849        C850   1.399       .  A
C849        C854   1.394       .  A
C849       H2811   1.084       .  S
C850        C855   1.474       .  S
C850        C851   1.413       .  A
C851        C852   1.400       .  A
C851        S856   1.805       .  S
C852        C853   1.403       .  A
C852        H857   1.084       .  S
C853        C854   1.415       .  A
C854       S2810   1.804       .  S
C855        C860   1.409       .  A
C855        C864   1.401       .  A
S856        H872   1.406       .  S
S858       C2806   1.804       .  S
S858       H2821   1.408       .  S
H859       C2801   1.084       .  S
C860       C2813   1.400   1_554  A
C860       S2817   1.807       .  S
C861       C2812   1.399       .  A
C861       C2814   1.404       .  A
C861        H866   1.083       .  S
C862        C863   1.413       .  A
C862       C2813   1.404       .  A
C863        C864   1.397   1_556  A
C863        S867   1.803       .  S
C864        H868   1.084       .  S
S865       C2812   1.807       .  S
S865        H870   1.407       .  S
S867        H871   1.407       .  S
H869       S2810   1.408       .  S
C873        C874   1.401       .  A
C873        C878   1.397       .  A
C873        H883   1.084       .  S
C874        C879   1.472       .  S
C874        C875   1.407       .  A
C875        C876   1.395       .  A
C875        S880   1.804       .  S
C876        C877   1.408       .  A
C876        H881   1.084       .  S
C877        C878   1.417       .  A
C878        S882   1.801       .  S
C879        C884   1.411       .  A
C879        C888   1.398       .  A
S880        H896   1.405       .  S
S882        H893   1.408       .  S
C884        C885   1.402       .  A
C884        S889   1.807       .  S
C885        C886   1.402       .  A
C885        H890   1.083       .  S
C886        C887   1.416       .  A
C887        C888   1.394       .  A
C887        S891   1.806       .  S
C888        H892   1.084       .  S
S889        H894   1.407       .  S
S891        H895   1.407       .  S
C897        C898   1.400       .  A
C897        C902   1.396       .  A
C897        H907   1.084       .  S
C898        C903   1.476       .  S
C898        C899   1.414       .  A
C899        C900   1.399       .  A
C899        S904   1.806       .  S
C900        C901   1.402       .  A
C900        H905   1.084       .  S
C901        C902   1.414       .  A
C902       S2858   1.805   1_554  S
C903        C908   1.408       .  A
C903        C912   1.399       .  A
S904        H920   1.405       .  S
S906       C2854   1.805       .  S
S906        H917   1.407       .  S
C908        C909   1.402       .  A
C908        S913   1.807       .  S
C909        C910   1.405       .  A
C909        H914   1.083       .  S
C910        C911   1.418       .  A
C911        C912   1.402       .  A
C911        S915   1.809       .  S
C912        H916   1.083       .  S
S913        H918   1.406       .  S
S915        H919   1.407       .  S
C921        C922   1.400       .  A
C921        C926   1.403       .  A
C921        H931   1.083       .  S
C922        C927   1.473       .  S
C922        C923   1.409       .  A
C923        C924   1.395       .  A
C923        S928   1.805       .  S
C924        C925   1.405       .  A
C924        H929   1.084       .  S
C925        C926   1.416       .  A
C926        S930   1.808       .  S
C927        C932   1.409       .  A
C927        C936   1.400   1_565  A
S928        H944   1.405   1_565  S
S930        H941   1.407       .  S
C932        C933   1.400   1_565  A
C932        S937   1.808       .  S
C933        C934   1.403       .  A
C933        H938   1.083   1_554  S
C934       C2175   1.474   1_554  S
C934        C935   1.415       .  A
C935        C936   1.399       .  A
C935        S939   1.803       .  S
C936        H940   1.084       .  S
S937        H942   1.407       .  S
S939       H2895   1.407   1_554  S
H943       S2891   1.407       .  S
C945        C946   1.401       .  A
C945        C950   1.402       .  A
C945        H955   1.084       .  S
C946        C951   1.479       .  S
C946        C947   1.412       .  A
C947        C948   1.398       .  A
C947        S952   1.805       .  S
C948        C949   1.405       .  A
C948        H953   1.083       .  S
C949        C950   1.419       .  A
C950        S954   1.802       .  S
C951        C956   1.408       .  A
C951        C960   1.400       .  A
S952        H968   1.403       .  S
S954        H965   1.407       .  S
C956        C957   1.402       .  A
C956        S961   1.807       .  S
C957        C958   1.405       .  A
C957        H962   1.082       .  S
C958        C959   1.417       .  A
C959        C960   1.401       .  A
C959        S963   1.803       .  S
C960        H964   1.084       .  S
S961        H966   1.407       .  S
S963        H967   1.407       .  S
C969        C970   1.401       .  A
C969        C974   1.399       .  A
C969        H979   1.084       .  S
C970        C975   1.481       .  S
C970        C971   1.413       .  A
C971        C972   1.400       .  A
C971        S976   1.806       .  S
C972        C973   1.406       .  A
C972        H977   1.083       .  S
C973        C974   1.417       .  A
C974        S978   1.802       .  S
C975        C980   1.409       .  A
C975        C984   1.400       .  A
S976        H992   1.405       .  S
S978        H989   1.408       .  S
C980        C981   1.403       .  A
C980        S985   1.807       .  S
C981        C982   1.407       .  A
C981        H986   1.082       .  S
C982        C983   1.420       .  A
C983        C984   1.399       .  A
C983        S987   1.802       .  S
C984        H988   1.084       .  S
S985        H990   1.407       .  S
S987        H991   1.408       .  S
C993        C994   1.403       .  A
C993        C998   1.403       .  A
C993       H1003   1.084       .  S
C994        C999   1.475       .  S
C994        C995   1.407       .  A
C995        C996   1.394       .  A
C995       S1000   1.805       .  S
C996        C997   1.408       .  A
C996       H1001   1.084       .  S
C997        C998   1.416       .  A
C998       S1002   1.798       .  S
C999       C1004   1.409       .  A
C999       C1008   1.400       .  A
S1000      H1016   1.405       .  S
S1002      H1013   1.407       .  S
C1004      C1005   1.400       .  A
C1004      S1009   1.807       .  S
C1005      C2958   1.403       .  A
C1005      H2962   1.083       .  S
C1006      C2957   1.403       .  A
C1006      C2959   1.415       .  A
C1007      C1008   1.399       .  A
C1007      C2958   1.415       .  A
C1007      S2963   1.804       .  S
C1008      H1012   1.084       .  S
S1009      H1014   1.407       .  S
H1010      C2957   1.083       .  S
S1011      C2959   1.804       .  S
S1011      H1015   1.407       .  S
C1017      C1018   1.399       .  A
C1017      C1022   1.397       .  A
C1017      H1027   1.084       .  S
C1018      C1023   1.474       .  S
C1018      C1019   1.412       .  A
C1019      C1020   1.399       .  A
C1019      S1024   1.806       .  S
C1020      C1021   1.404       .  A
C1020      H1025   1.084       .  S
C1021      C1022   1.416       .  A
C1022      S1026   1.804       .  S
C1023      C1028   1.410       .  A
C1023      C1032   1.399       .  A
S1024      H1040   1.405       .  S
S1026      H1037   1.408       .  S
C1028      C1029   1.403       .  A
C1028      S1033   1.806       .  S
C1029      C1030   1.402       .  A
C1029      H1034   1.083       .  S
C1030      C1031   1.415       .  A
C1031      C1032   1.396       .  A
C1031      S1035   1.806       .  S
C1032      H1036   1.084       .  S
S1033      H1038   1.407       .  S
S1035      H1039   1.407       .  S
C1041      C1042   1.401       .  A
C1041      C1046   1.398       .  A
C1041      H1051   1.084       .  S
C1042      C1047   1.473       .  S
C1042      C1043   1.411       .  A
C1043      C1044   1.396       .  A
C1043      S1048   1.805       .  S
C1044      C1045   1.404       .  A
C1044      H1049   1.084       .  S
C1045      C1046   1.415       .  A
C1046      S1050   1.803       .  S
C1047      C1056   1.396       .  A
C1047      C3004   1.407       .  A
S1048      H1064   1.405       .  S
S1050      H1061   1.407       .  S
C1052      C1053   1.400       .  A
C1052      C2999   1.409       .  A
C1052      S1057   1.807       .  S
C1053      C3006   1.402       .  A
C1053      H1058   1.083       .  S
C1054      C1055   1.422   1_556  A
C1054      C3005   1.408       .  A
C1055      C1056   1.397       .  A
C1055      S1059   1.801       .  S
C1056      H1060   1.084       .  S
S1057      H1062   1.407       .  S
S1059      H1063   1.408       .  S
C1065      C1066   1.399       .  A
C1065      C1070   1.405       .  A
C1065      H1075   1.083       .  S
C1066      C1071   1.477       .  S
C1066      C1067   1.409       .  A
C1067      C1068   1.395       .  A
C1067      S1072   1.804       .  S
C1068      C1069   1.407       .  A
C1068      H1073   1.083       .  S
C1069      C1070   1.421       .  A
C1070      S1074   1.809       .  S
C1071      C1076   1.408       .  A
C1071      C1080   1.400       .  A
S1072      H1088   1.405       .  S
S1074      H1085   1.407       .  S
C1076      C1077   1.400       .  A
C1076      S1081   1.808       .  S
C1077      C1078   1.406       .  A
C1077      H1082   1.083       .  S
C1078      C1079   1.417       .  A
C1079      C1080   1.401       .  A
C1079      S1083   1.802       .  S
C1080      H1084   1.084       .  S
S1081      H1086   1.407       .  S
S1083      H1087   1.407       .  S
C1089      C1090   1.399       .  A
C1089      C1094   1.395       .  A
C1089      H1099   1.084       .  S
C1090      C1095   1.473       .  S
C1090      C1091   1.413       .  A
C1091      C1092   1.399       .  A
C1091      S1096   1.806       .  S
C1092      C1093   1.404       .  A
C1092      H1097   1.084       .  S
C1093      C1094   1.414       .  A
C1094      S1098   1.803       .  S
C1095      C1100   1.404       .  A
C1095      C1104   1.402       .  A
S1096      H1112   1.404       .  S
S1098      H1109   1.407       .  S
C1100      C1101   1.399       .  A
C1100      S1105   1.807       .  S
C1101      C1102   1.410       .  A
C1101      H1106   1.082       .  S
C1102      C1103   1.416       .  A
C1103      C1104   1.399       .  A
C1103      S1107   1.801       .  S
C1104      H1108   1.084       .  S
S1105      H1110   1.407       .  S
S1107      H1111   1.406       .  S
C1113      C1114   1.401       .  A
C1113      C1118   1.399       .  A
C1113      H1123   1.084       .  S
C1114      C3071   1.476       .  S
C1114      C1115   1.413       .  A
C1115      C1116   1.399       .  A
C1115      S1120   1.806       .  S
C1116      C1117   1.403       .  A
C1116      H1121   1.084       .  S
C1117      C1118   1.415       .  A
C1118      S1122   1.804       .  S
C1119      C3066   1.476   1_554  S
C1119      C1128   1.399       .  A
C1119      C3076   1.409   1_554  A
S1120      H1136   1.403       .  S
S1122      H1133   1.407       .  S
C1124      C3071   1.409       .  A
C1124      C3077   1.403       .  A
C1124      S1129   1.807       .  S
C1125      C1126   1.403       .  A
C1125      C3076   1.403   1_554  A
C1125      H3082   1.083   1_554  S
C1126      C1127   1.417       .  A
C1127      C1128   1.398       .  A
C1127      S1131   1.805       .  S
C1128      H1132   1.084       .  S
S1129      H1134   1.407       .  S
H1130      C3077   1.083       .  S
S1131      H1135   1.407       .  S
C1137      C1138   1.402       .  A
C1137      C1142   1.399       .  A
C1137      H1147   1.084       .  S
C1138      C1143   1.482       .  S
C1138      C1139   1.412       .  A
C1139      C1140   1.401       .  A
C1139      S1144   1.804       .  S
C1140      C1141   1.405       .  A
C1140      H1145   1.084       .  S
C1141      C1142   1.415       .  A
C1142      S1146   1.803       .  S
C1143      C1148   1.409       .  A
C1143      C1152   1.404       .  A
S1144      H1160   1.406       .  S
S1146      H1157   1.406       .  S
C1148      C1149   1.403       .  A
C1148      S1153   1.807       .  S
C1149      C1150   1.405       .  A
C1149      H1154   1.083       .  S
C1150      C1151   1.412       .  A
C1151      C1152   1.400       .  A
C1151      S1155   1.802       .  S
C1152      H1156   1.084       .  S
S1153      H1158   1.407       .  S
S1155      H1159   1.407       .  S
C1161      C1162   1.403       .  A
C1161      C1166   1.399   1_556  A
C1161      H1171   1.084       .  S
C1162      C3119   1.472       .  S
C1162      C1163   1.409       .  A
C1163      C1164   1.392       .  A
C1163      S3120   1.805       .  S
C1164      C1165   1.402   1_556  A
C1164      H1169   1.081       .  S
C1165      C1166   1.412       .  A
C1166      S1170   1.802       .  S
C1167      C3114   1.475       .  S
C1167      C1172   1.405       .  A
C1167      C1176   1.402       .  A
S1168      C3115   1.805       .  S
S1168      H1184   1.406       .  S
S1170      H1181   1.407       .  S
C1172      C1173   1.401       .  A
C1172      S1177   1.807       .  S
C1173      C1174   1.409       .  A
C1173      H1178   1.082       .  S
C1174      C1175   1.414       .  A
C1175      C1176   1.397       .  A
C1175      S1179   1.802       .  S
C1176      H3132   1.084       .  S
S1177      H1182   1.407       .  S
S1179      H1183   1.407       .  S
H1180      C3128   1.084       .  S
C1185      C1186   1.399       .  A
C1185      C1190   1.393       .  A
C1185      H1195   1.084       .  S
C1186      C1191   1.477       .  S
C1186      C1187   1.415       .  A
C1187      C1188   1.403       .  A
C1187      S1192   1.805       .  S
C1188      C1189   1.403       .  A
C1188      H1193   1.084       .  S
C1189      C1190   1.414       .  A
C1190      S1194   1.805       .  S
C1191      C1196   1.408       .  A
C1191      C1200   1.400       .  A
S1192      H1208   1.405       .  S
S1194      H1205   1.406       .  S
C1196      C1197   1.402       .  A
C1196      S1201   1.806       .  S
C1197      C1198   1.405       .  A
C1197      H1202   1.083       .  S
C1198      C1199   1.416       .  A
C1199      C1200   1.400       .  A
C1199      S1203   1.809       .  S
C1200      H1204   1.083       .  S
S1201      H1206   1.407       .  S
S1203      H1207   1.407       .  S
C1209      C1210   1.400       .  A
C1209      C1214   1.398       .  A
C1209      H1219   1.084       .  S
C1210      C1215   1.473       .  S
C1210      C1211   1.415       .  A
C1211      C1212   1.399       .  A
C1211      S1216   1.810       .  S
C1212      C1213   1.404       .  A
C1212      H1217   1.084       .  S
C1213      C1214   1.414       .  A
C1214      S1218   1.802       .  S
C1215      C1220   1.408       .  A
C1215      C1224   1.399       .  A
S1216      H1232   1.400       .  S
S1218      H1229   1.407       .  S
C1220      C1221   1.400       .  A
C1220      S1225   1.807       .  S
C1221      C1222   1.404       .  A
C1221      H1226   1.083       .  S
C1222      C1223   1.417       .  A
C1223      C1224   1.399       .  A
C1223      S1227   1.803       .  S
C1224      H1228   1.084       .  S
S1225      H1230   1.407       .  S
S1227      H1231   1.408       .  S
C1233      C1234   1.401       .  A
C1233      C1238   1.399       .  A
C1233      H1243   1.084       .  S
C1234      C1239   1.480       .  S
C1234      C1235   1.413       .  A
C1235      C1236   1.399       .  A
C1235      S1240   1.805       .  S
C1236      C1237   1.404       .  A
C1236      H1241   1.084       .  S
C1237      C1238   1.416       .  A
C1238      S1242   1.803       .  S
C1239      C1244   1.409       .  A
C1239      C1248   1.400       .  A
S1240      H1256   1.405       .  S
S1242      H1253   1.408       .  S
C1244      C1245   1.402       .  A
C1244      S1249   1.807       .  S
C1245      C1246   1.407       .  A
C1245      H1250   1.082       .  S
C1246      C1247   1.418       .  A
C1247      C1248   1.399       .  A
C1247      S1251   1.802       .  S
C1248      H1252   1.084       .  S
S1249      H1254   1.407       .  S
S1251      H1255   1.408       .  S
C1257      C1258   1.403       .  A
C1257      C1262   1.401       .  A
C1257      H1267   1.084       .  S
C1258      C1263   1.474       .  S
C1258      C1259   1.409       .  A
C1259      C1260   1.395       .  A
C1259      S1264   1.805       .  S
C1260      C1261   1.405       .  A
C1260      H1265   1.085       .  S
C1261      C1262   1.411       .  A
C1262      S1266   1.798       .  S
C1263      C1268   1.409       .  A
C1263      C1272   1.397       .  A
S1264      H1280   1.405       .  S
S1266      H1277   1.406       .  S
C1268      C1269   1.403       .  A
C1268      S1273   1.807       .  S
C1269      C1270   1.406       .  A
C1269      H1274   1.083       .  S
C1270      C1271   1.419       .  A
C1271      C1272   1.397       .  A
C1271      S1275   1.803       .  S
C1272      H1276   1.084       .  S
S1273      H1278   1.407       .  S
S1275      H1279   1.408       .  S
C1281      C1282   1.399       .  A
C1281      C1286   1.395       .  A
C1281      H1291   1.084       .  S
C1282      C1287   1.472       .  S
C1282      C1283   1.413       .  A
C1283      C1284   1.399       .  A
C1283      S1288   1.805       .  S
C1284      C1285   1.403       .  A
C1284      H1289   1.084       .  S
C1285      C1286   1.414       .  A
C1286      S1290   1.804       .  S
C1287      C1296   1.403       .  A
C1287      C3244   1.405       .  A
S1288      H1304   1.405       .  S
S1290      H1301   1.407       .  S
C1292      C1293   1.398       .  A
C1292      C3239   1.405       .  A
C1292      S1297   1.807       .  S
C1293      C1294   1.406       .  A
C1293      H1298   1.083       .  S
C1294      C3247   1.411       .  A
C1295      C1296   1.399       .  A
C1295      C3246   1.411       .  A
C1295      S1299   1.802       .  S
C1296      H1300   1.084       .  S
S1297      H1302   1.407       .  S
S1299      H1303   1.407       .  S
C1305      C1306   1.399       .  A
C1305      C1310   1.400       .  A
C1305      H1315   1.084       .  S
C1306      C1311   1.475       .  S
C1306      C1307   1.410       .  A
C1307      C1308   1.397       .  A
C1307      S1312   1.804       .  S
C1308      C1309   1.406       .  A
C1308      H1313   1.084       .  S
C1309      C1310   1.418       .  A
C1310      S1314   1.802       .  S
C1311      C1320   1.400       .  A
C1311      C3268   1.409       .  A
S1312      H1328   1.404       .  S
S1314      H1325   1.408       .  S
C1316      C1317   1.399       .  A
C1316      C3263   1.408   1_554  A
C1316      S1321   1.807       .  S
C1317      C1318   1.403       .  A
C1317      H1322   1.083       .  S
C1318      C1319   1.416       .  A
C1319      C3272   1.400   1_554  A
C1319      S1323   1.803       .  S
C1320      C3271   1.400       .  A
C1320      H1324   1.084       .  S
S1321      H1326   1.407       .  S
S1323      H1327   1.407       .  S
C1329      C1330   1.401       .  A
C1329      C1334   1.400       .  A
C1329      H1339   1.084       .  S
C1330      C1335   1.476       .  S
C1330      C1331   1.413       .  A
C1331      C1332   1.397       .  A
C1331      S1336   1.809       .  S
C1332      C1333   1.403       .  A
C1332      H1337   1.084       .  S
C1333      C1334   1.416       .  A
C1334      S1338   1.802       .  S
C1335      C1340   1.408       .  A
C1335      C1344   1.398       .  A
S1336      H1352   1.403       .  S
S1338      H1349   1.407       .  S
C1340      C1341   1.401       .  A
C1340      S1345   1.807       .  S
C1341      C1342   1.406       .  A
C1341      H3298   1.082       .  S
C1342      C2097   1.484       .  S
C1342      C1343   1.420       .  A
C1343      C1344   1.402       .  A
C1343      S1347   1.810       .  S
C1344      H1348   1.083       .  S
S1345      H1350   1.407       .  S
H1346      C3293   1.082       .  S
S1347      H1351   1.407       .  S
C1353      C1354   1.402       .  A
C1353      C1358   1.401       .  A
C1353      H1363   1.084       .  S
C1354      C1359   1.476       .  S
C1354      C1355   1.408       .  A
C1355      C1356   1.396       .  A
C1355      S1360   1.804       .  S
C1356      C1357   1.407       .  A
C1356      H1361   1.084       .  S
C1357      C1358   1.416       .  A
C1358      S1362   1.801       .  S
C1359      C1364   1.406       .  A
C1359      C1368   1.401       .  A
S1360      H1376   1.405       .  S
S1362      H1373   1.408       .  S
C1364      C1365   1.401       .  A
C1364      S1369   1.806       .  S
C1365      C1366   1.408       .  A
C1365      H1370   1.083       .  S
C1366      C1367   1.416       .  A
C1367      C1368   1.400       .  A
C1367      S1371   1.802       .  S
C1368      H1372   1.084       .  S
S1369      H1374   1.407       .  S
S1371      H1375   1.407       .  S
C1377      C1378   1.401       .  A
C1377      C1382   1.398       .  A
C1377      H1387   1.084       .  S
C1378      C1383   1.476       .  S
C1378      C1379   1.412       .  A
C1379      C1380   1.399       .  A
C1379      S1384   1.805       .  S
C1380      C1381   1.403       .  A
C1380      H1385   1.084       .  S
C1381      C1382   1.413       .  A
C1382      S1386   1.805       .  S
C1383      C1388   1.410       .  A
C1383      C3344   1.397       .  A
S1384      H1400   1.405       .  S
S1386      H1397   1.407       .  S
C1388      C3341   1.406       .  A
C1388      S1393   1.806       .  S
C1389      C1390   1.404   1_556  A
C1389      C3340   1.405       .  A
C1389      H3346   1.083       .  S
C1390      C1391   1.416       .  A
C1391      C1392   1.393       .  A
C1391      S1395   1.804       .  S
C1392      C3335   1.397   1_554  A
C1392      H1396   1.084       .  S
S1393      H1398   1.407       .  S
H1394      C3341   1.083       .  S
S1395      H1399   1.406       .  S
C1401      C1402   1.404       .  A
C1401      C1406   1.400       .  A
C1401      H1411   1.084       .  S
C1402      C1407   1.472       .  S
C1402      C1403   1.407       .  A
C1403      C1404   1.392       .  A
C1403      S1408   1.805       .  S
C1404      C1405   1.406       .  A
C1404      H1409   1.084       .  S
C1405      C1406   1.413       .  A
C1406      S1410   1.802       .  S
C1407      C1412   1.407       .  A
C1407      C1416   1.403       .  A
S1408      H1424   1.405       .  S
S1410      H1421   1.407       .  S
C1412      C1413   1.397       .  A
C1412      S1417   1.808       .  S
C1413      C1414   1.403       .  A
C1413      H1418   1.083       .  S
C1414      C1415   1.412       .  A
C1415      C1416   1.400       .  A
C1415      S1419   1.802       .  S
C1416      H1420   1.084       .  S
S1417      H1422   1.407       .  S
S1419      H1423   1.407       .  S
C1425      C1426   1.401       .  A
C1425      C1430   1.396       .  A
C1425      H1435   1.084       .  S
C1426      C1431   1.478       .  S
C1426      C1427   1.413       .  A
C1427      C1428   1.402       .  A
C1427      S1432   1.803       .  S
C1428      C1429   1.403       .  A
C1428      H3385   1.084       .  S
C1429      C1430   1.413       .  A
C1430      S1434   1.806       .  S
C1431      C1436   1.408       .  A
C1431      C1440   1.400       .  A
S1432      H1448   1.405       .  S
H1433      C3380   1.083       .  S
S1434      H1445   1.407       .  S
C1436      C1437   1.400   1_455  A
C1436      S1441   1.808       .  S
C1437      C1438   1.404       .  A
C1437      H1442   1.082       .  S
C1438      C1439   1.419       .  A
C1439      C1440   1.405   1_655  A
C1439      S1443   1.809       .  S
C1440      H1444   1.083       .  S
S1441      H1446   1.406   1_455  S
S1443      H1447   1.407   1_655  S
C1449      C1450   1.402       .  A
C1449      C1454   1.397       .  A
C1449      H1459   1.084       .  S
C1450      C1455   1.477   1_455  S
C1450      C1451   1.409       .  A
C1451      C1452   1.399       .  A
C1451      S1456   1.803   1_455  S
C1452      C1453   1.407       .  A
C1452      H1457   1.084       .  S
C1453      C1454   1.413       .  A
C1454      S1458   1.802       .  S
C1455      C1460   1.411       .  A
C1455      C1464   1.399       .  A
S1456      H1472   1.406       .  S
S1458      H1469   1.407       .  S
C1460      C1461   1.405       .  A
C1460      S1465   1.807   1_655  S
C1461      C1462   1.404       .  A
C1461      H1466   1.083       .  S
C1462      C1463   1.416       .  A
C1463      C1464   1.396       .  A
C1463      S1467   1.805       .  S
C1464      H1468   1.084       .  S
S1465      H1470   1.406   1_455  S
S1467      H1471   1.407       .  S
C1473      C1474   1.402       .  A
C1473      C1478   1.401       .  A
C1473      H1483   1.084       .  S
C1474      C1479   1.483       .  S
C1474      C1475   1.414       .  A
C1475      C1476   1.402       .  A
C1475      S1480   1.806       .  S
C1476      C1477   1.406       .  A
C1476      H1481   1.084       .  S
C1477      C1478   1.418       .  A
C1478      S1482   1.803       .  S
C1479      C1484   1.410       .  A
C1479      C1488   1.401       .  A
S1480      H1496   1.404       .  S
S1482      H1493   1.407       .  S
C1484      C1485   1.407       .  A
C1484      S1489   1.806       .  S
C1485      C1486   1.407       .  A
C1485      H1490   1.083       .  S
C1486      C1487   1.415       .  A
C1487      C1488   1.398       .  A
C1487      S1491   1.803       .  S
C1488      H1492   1.084       .  S
S1489      H1494   1.407       .  S
S1491      H1495   1.408       .  S
C1497      C1498   1.405       .  A
C1497      C1502   1.401       .  A
C1497      H1507   1.084       .  S
C1498      C1503   1.482       .  S
C1498      C1499   1.409       .  A
C1499      C1500   1.395       .  A
C1499      S1504   1.805       .  S
C1500      C1501   1.408       .  A
C1500      H1505   1.084       .  S
C1501      C1502   1.415       .  A
C1502      S1506   1.801       .  S
C1503      C1508   1.409       .  A
C1503      C1512   1.403       .  A
S1504      H1520   1.406       .  S
S1506      H1517   1.407       .  S
C1508      C1509   1.402       .  A
C1508      S1513   1.807       .  S
C1509      C3462   1.407       .  A
C1509      H1514   1.083       .  S
C1510      C3461   1.405       .  A
C1510      C3463   1.413       .  A
C1511      C1512   1.396       .  A
C1511      C3462   1.413       .  A
C1511      S3467   1.801       .  S
C1512      H1516   1.084       .  S
S1513      H1518   1.407       .  S
S1515      C3463   1.802       .  S
S1515      H1519   1.406   1_556  S
C1521      C1522   1.398       .  A
C1521      C1526   1.394       .  A
C1521      H1531   1.084       .  S
C1522      C1527   1.472       .  S
C1522      C1523   1.415       .  A
C1523      C1524   1.401       .  A
C1523      S1528   1.809       .  S
C1524      C1525   1.404       .  A
C1524      H1529   1.084       .  S
C1525      C1526   1.414       .  A
C1526      S1530   1.804       .  S
C1527      C1532   1.405       .  A
C1527      C1536   1.401       .  A
S1528      H1544   1.401       .  S
S1530      H1541   1.407       .  S
C1532      C1533   1.401       .  A
C1532      S1537   1.805       .  S
C1533      C1534   1.408       .  A
C1533      H1538   1.083       .  S
C1534      C1535   1.413       .  A
C1535      C1536   1.398       .  A
C1535      S1539   1.801       .  S
C1536      H1540   1.084       .  S
S1537      H1542   1.407       .  S
S1539      H1543   1.407       .  S
C1545      C1546   1.406       .  A
C1545      C1550   1.404       .  A
C1545      H1555   1.084       .  S
C1546      C1551   1.482       .  S
C1546      C1547   1.412       .  A
C1547      C1548   1.394       .  A
C1547      S1552   1.805       .  S
C1548      C1549   1.404       .  A
C1548      H1553   1.084       .  S
C1549      C1550   1.413       .  A
C1550      S1554   1.801       .  S
C1551      C1556   1.410       .  A
C1551      C1560   1.403       .  A
S1552      H1568   1.406       .  S
S1554      H1565   1.407       .  S
C1556      C1557   1.403       .  A
C1556      S1561   1.808       .  S
C1557      C1558   1.408       .  A
C1557      H1562   1.083       .  S
C1558      C1559   1.414       .  A
C1559      C1560   1.399       .  A
C1559      S1563   1.801       .  S
C1560      H1564   1.084       .  S
S1561      H1566   1.407       .  S
S1563      H1567   1.407       .  S
C1569      C1570   1.405       .  A
C1569      C1574   1.401       .  A
C1569      H1579   1.084       .  S
C1570      C1575   1.482       .  S
C1570      C1571   1.409       .  A
C1571      C1572   1.396       .  A
C1571      S1576   1.804       .  S
C1572      C1573   1.409       .  A
C1572      H1577   1.083       .  S
C1573      C1574   1.416       .  A
C1574      S1578   1.801       .  S
C1575      C1580   1.408       .  A
C1575      C1584   1.406       .  A
S1576      H1592   1.406       .  S
S1578      H1589   1.407       .  S
C1580      C1581   1.399       .  A
C1580      S1585   1.808       .  S
C1581      C1582   1.404       .  A
C1581      H1586   1.083       .  S
C1582      C1583   1.412       .  A
C1583      C1584   1.401       .  A
C1583      S1587   1.802       .  S
C1584      H1588   1.084       .  S
S1585      H1590   1.407       .  S
S1587      H1591   1.407       .  S
C1593      C1594   1.400       .  A
C1593      C1598   1.398       .  A
C1593      H1603   1.084       .  S
C1594      C1599   1.478       .  S
C1594      C1595   1.412       .  A
C1595      C1596   1.400       .  A
C1595      S1600   1.805       .  S
C1596      C1597   1.404       .  A
C1596      H1601   1.084       .  S
C1597      C1598   1.416       .  A
C1598      S1602   1.803       .  S
C1599      C1604   1.407       .  A
C1599      C1608   1.403       .  A
S1600      H1616   1.406       .  S
S1602      H1613   1.407       .  S
C1604      C1605   1.400       .  A
C1604      S1609   1.807       .  S
C1605      C1606   1.406       .  A
C1605      H1610   1.083       .  S
C1606      C1607   1.412       .  A
C1607      C1608   1.400       .  A
C1607      S1611   1.801       .  S
C1608      H1612   1.084       .  S
S1609      H1614   1.407       .  S
S1611      H1615   1.407       .  S
C1617      C1618   1.401   1_556  A
C1617      C1622   1.399       .  A
C1617      H1627   1.084       .  S
C1618      C1623   1.475       .  S
C1618      C1619   1.409       .  A
C1619      C1620   1.398   1_554  A
C1619      S1624   1.805       .  S
C1620      C1621   1.407       .  A
C1620      H1625   1.084   1_556  S
C1621      C1622   1.416       .  A
C1622      S1626   1.802       .  S
C1623      C1628   1.409       .  A
C1623      C1632   1.399   1_554  A
S1624      H1640   1.405       .  S
S1626      H1637   1.407       .  S
C1628      C1629   1.403       .  A
C1628      S1633   1.806       .  S
C1629      C1630   1.403       .  A
C1629      H1634   1.083       .  S
C1630      C1631   1.416       .  A
C1631      C1632   1.397   1_554  A
C1631      S3587   1.804   1_554  S
C1632      H3588   1.084       .  S
S1633      H1638   1.407       .  S
S1635      C3583   1.809       .  S
S1635      H3591   1.407       .  S
H1636      C3584   1.083       .  S
H1639      S3587   1.407       .  S
C1641      C1642   1.402       .  A
C1641      C1646   1.396       .  A
C1641      H1651   1.084       .  S
C1642      C1647   1.468       .  S
C1642      C1643   1.407       .  A
C1643      C1644   1.396       .  A
C1643      S1648   1.805       .  S
C1644      C1645   1.407       .  A
C1644      H1649   1.084       .  S
C1645      C1646   1.412       .  A
C1646      S1650   1.799       .  S
C1647      C1652   1.407       .  A
C1647      C1656   1.399       .  A
S1648      H1664   1.404       .  S
S1650      H1661   1.407       .  S
C1652      C1653   1.402       .  A
C1652      S1657   1.806       .  S
C1653      C1654   1.404       .  A
C1653      H1658   1.083       .  S
C1654      C1655   1.412       .  A
C1655      C1656   1.393       .  A
C1655      S1659   1.805       .  S
C1656      H1660   1.084       .  S
S1657      H1662   1.407       .  S
S1659      H1663   1.407       .  S
C1665      C1666   1.398       .  A
C1665      C3622   1.399       .  A
C1665      H1675   1.084       .  S
C1666      C1671   1.473       .  S
C1666      C1667   1.412       .  A
C1667      C1668   1.396       .  A
C1667      S1672   1.805       .  S
C1668      C3621   1.402       .  A
C1668      H1673   1.084       .  S
C1669      C1670   1.418       .  A
C1669      C3620   1.403       .  A
C1670      C3617   1.398       .  A
C1670      S1674   1.804       .  S
C1671      C1676   1.409       .  A
C1671      C1680   1.399       .  A
S1672      H1688   1.405       .  S
S1674      H1685   1.408       .  S
C1676      C1677   1.404       .  A
C1676      S1681   1.805       .  S
C1677      C1678   1.403       .  A
C1677      H1682   1.083       .  S
C1678      C1679   1.411       .  A
C1679      C1680   1.393       .  A
C1679      S1683   1.805       .  S
C1680      H1684   1.084       .  S
S1681      H1686   1.407       .  S
S1683      H1687   1.407       .  S
C1689      C1690   1.401       .  A
C1689      C1694   1.397       .  A
C1689      H1699   1.084       .  S
C1690      C1695   1.476       .  S
C1690      C1691   1.410       .  A
C1691      C1692   1.398       .  A
C1691      S1696   1.803       .  S
C1692      C1693   1.405       .  A
C1692      H1697   1.084       .  S
C1693      C1694   1.414       .  A
C1694      S1698   1.804       .  S
C1695      C1700   1.404   1_554  A
C1695      C1704   1.402       .  A
S1696      H1712   1.406   1_554  S
S1698      H1709   1.407       .  S
C1700      C1701   1.402       .  A
C1700      S1705   1.806       .  S
C1701      C1702   1.409   1_455  A
C1701      H1706   1.082   1_455  S
C1702      C1703   1.415   1_556  A
C1703      C1704   1.399   1_655  A
C1703      S1707   1.801       .  S
C1704      H1708   1.084       .  S
S1705      H1710   1.407       .  S
S1707      H1711   1.408       .  S
C1713      C1714   1.398       .  A
C1713      C1718   1.402       .  A
C1713      H1723   1.083   1_455  S
C1714      C1719   1.472   1_455  S
C1714      C1715   1.413       .  A
C1715      C1716   1.397       .  A
C1715      S1720   1.807       .  S
C1716      C1717   1.403       .  A
C1716      H1721   1.084       .  S
C1717      C1718   1.418       .  A
C1718      S1722   1.809       .  S
C1719      C1724   1.407       .  A
C1719      C1728   1.400       .  A
S1720      H1736   1.401       .  S
S1722      H1733   1.407       .  S
C1724      C1725   1.399       .  A
C1724      S1729   1.807       .  S
C1725      C1726   1.404       .  A
C1725      H1730   1.083       .  S
C1726      C1727   1.412       .  A
C1727      C1728   1.398       .  A
C1727      S1731   1.801       .  S
C1728      H1732   1.084       .  S
S1729      H1734   1.407       .  S
S1731      H1735   1.405       .  S
C1737      C1738   1.401       .  A
C1737      C1742   1.402       .  A
C1737      H1747   1.084       .  S
C1738      C1743   1.480       .  S
C1738      C1739   1.411       .  A
C1739      C1740   1.398       .  A
C1739      S1744   1.806       .  S
C1740      C1741   1.406       .  A
C1740      H3697   1.084       .  S
C1741      C2034   1.488       .  S
C1741      C1742   1.419       .  A
C1742      S1746   1.802       .  S
C1743      C1748   1.405       .  A
C1743      C1752   1.400       .  A
S1744      H1760   1.404       .  S
H1745      C3692   1.084       .  S
S1746      H1757   1.408       .  S
C1748      C1749   1.403       .  A
C1748      S1753   1.806       .  S
C1749      C1750   1.410       .  A
C1749      H1754   1.082       .  S
C1750      C1751   1.420       .  A
C1751      C1752   1.404       .  A
C1751      S1755   1.809       .  S
C1752      H1756   1.083       .  S
S1753      H1758   1.407       .  S
S1755      H1759   1.407       .  S
C1761      C1762   1.401       .  A
C1761      C1766   1.399       .  A
C1761      H1771   1.084       .  S
C1762      C1767   1.471       .  S
C1762      C1763   1.409       .  A
C1763      C1764   1.395       .  A
C1763      S1768   1.806       .  S
C1764      C1765   1.406       .  A
C1764      H1769   1.084       .  S
C1765      C1766   1.415       .  A
C1766      S1770   1.801       .  S
C1767      C1772   1.407       .  A
C1767      C1776   1.401       .  A
S1768      H1784   1.403       .  S
S1770      H1781   1.407       .  S
C1772      C1773   1.400       .  A
C1772      S1777   1.806       .  S
C1773      C1774   1.403       .  A
C1773      H1778   1.083       .  S
C1774      C1775   1.412       .  A
C1775      C1776   1.398       .  A
C1775      S1779   1.804       .  S
C1776      H1780   1.084       .  S
S1777      H1782   1.407       .  S
S1779      H1783   1.407       .  S
C1785      C1786   1.402       .  A
C1785      C1790   1.397       .  A
C1785      H1795   1.084       .  S
C1786      C1791   1.476       .  S
C1786      C1787   1.410       .  A
C1787      C1788   1.396       .  A
C1787      S1792   1.804       .  S
C1788      C1789   1.404       .  A
C1788      H1793   1.084       .  S
C1789      C1790   1.413       .  A
C1790      S1794   1.801       .  S
C1791      C1796   1.406       .  A
C1791      C1800   1.403       .  A
S1792      H1808   1.406       .  S
S1794      H1805   1.405       .  S
C1796      C1797   1.400       .  A
C1796      S1801   1.807       .  S
C1797      C1798   1.409       .  A
C1797      H1802   1.082       .  S
C1798      C1799   1.414       .  A
C1799      C1800   1.398       .  A
C1799      S1803   1.802       .  S
C1800      H1804   1.084       .  S
S1801      H1806   1.407       .  S
S1803      H1807   1.408       .  S
C1809      C1810   1.401       .  A
C1809      C1814   1.396       .  A
C1809      H1819   1.084       .  S
C1810      C1815   1.470       .  S
C1810      C1811   1.414       .  A
C1811      C1812   1.398       .  A
C1811      S1816   1.809       .  S
C1812      C1813   1.401       .  A
C1812      H3769   1.084       .  S
C1813      C1814   1.412       .  A
C1814      S1818   1.806       .  S
C1815      C1820   1.404       .  A
C1815      C1824   1.401       .  A
S1816      H1832   1.401       .  S
H1817      C3764   1.084       .  S
S1818      H1829   1.407       .  S
C1820      C1821   1.399       .  A
C1820      S1825   1.807       .  S
C1821      C1822   1.409       .  A
C1821      H1826   1.082       .  S
C1822      C1823   1.414       .  A
C1823      C1824   1.398       .  A
C1823      S1827   1.801       .  S
C1824      H1828   1.084       .  S
S1825      H1830   1.407       .  S
S1827      H1831   1.408       .  S
C1833      C1834   1.400       .  A
C1833      C1838   1.398       .  A
C1833      H1843   1.084       .  S
C1834      C1839   1.479       .  S
C1834      C1835   1.409       .  A
C1835      C1836   1.399       .  A
C1835      S1840   1.803       .  S
C1836      C1837   1.409       .  A
C1836      H1841   1.083       .  S
C1837      C1838   1.418       .  A
C1838      S1842   1.802       .  S
C1839      C1844   1.411       .  A
C1839      C1848   1.399       .  A
S1840      H1856   1.406       .  S
S1842      H1853   1.408       .  S
C1844      C1845   1.403       .  A
C1844      S1849   1.807       .  S
C1845      C1846   1.404       .  A
C1845      H1850   1.083       .  S
C1846      C1847   1.416       .  A
C1847      C1848   1.399       .  A
C1847      S1851   1.803       .  S
C1848      H1852   1.084       .  S
S1849      H1854   1.407       .  S
S1851      H1855   1.407       .  S
C1857      C3810   1.404       .  A
C1857      C3814   1.405       .  A
C1857      H1867   1.083       .  S
C1858      C3815   1.475       .  S
C1858      C1859   1.409       .  A
C1858      C3809   1.403       .  A
C1859      C1860   1.393       .  A
C1859      S1864   1.805       .  S
C1860      C1861   1.405   1_556  A
C1860      H1865   1.084   1_556  S
C1861      C1862   1.414       .  A
C1862      C3809   1.404   1_554  A
C1862      S1866   1.808       .  S
C1863      C3810   1.477       .  S
C1863      C1868   1.407       .  A
C1863      C1872   1.404       .  A
S1864      H1880   1.406       .  S
S1866      H1877   1.407       .  S
C1868      C1869   1.399       .  A
C1868      S3825   1.808       .  S
C1869      C1870   1.407       .  A
C1869      H1874   1.083       .  S
C1870      C1871   1.413       .  A
C1871      C1872   1.400       .  A
C1871      S1875   1.801       .  S
C1872      H1876   1.084       .  S
S1873      C3820   1.808       .  S
S1873      H1878   1.407       .  S
S1875      H1879   1.407       .  S
C1881      C1882   1.403       .  A
C1881      C1886   1.400       .  A
C1881      H1891   1.084       .  S
C1882      C1887   1.478       .  S
C1882      C1883   1.409       .  A
C1883      C1884   1.396       .  A
C1883      S1888   1.805       .  S
C1884      C1885   1.407       .  A
C1884      H1889   1.084       .  S
C1885      C1886   1.417       .  A
C1886      S1890   1.801       .  S
C1887      C1892   1.408       .  A
C1887      C1896   1.403       .  A
S1888      H1904   1.406       .  S
S1890      H1901   1.408       .  S
C1892      C1893   1.400       .  A
C1892      S1897   1.808       .  S
C1893      C1894   1.407       .  A
C1893      H1898   1.083       .  S
C1894      C1895   1.411       .  A
C1895      C1896   1.399       .  A
C1895      S1899   1.798       .  S
C1896      H1900   1.084       .  S
S1897      H1902   1.407       .  S
S1899      H1903   1.407       .  S
C1905      C1906   1.400       .  A
C1905      C3862   1.398       .  A
C1905      H1915   1.084       .  S
C1906      C1911   1.476       .  S
C1906      C3859   1.409       .  A
C1907      C1908   1.400   1_556  A
C1907      C3858   1.409   1_556  A
C1907      S1912   1.804       .  S
C1908      C1909   1.409       .  A
C1908      H1913   1.083   1_554  S
C1909      C1910   1.419       .  A
C1910      C3857   1.398       .  A
C1910      S1914   1.802       .  S
C1911      C1916   1.408       .  A
C1911      C1920   1.400       .  A
S1912      H3880   1.405       .  S
S1914      H1925   1.408       .  S
C1916      C1917   1.399       .  A
C1916      S1921   1.808       .  S
C1917      C1918   1.405       .  A
C1917      H1922   1.082       .  S
C1918      C1919   1.415       .  A
C1919      C1920   1.403       .  A
C1919      S1923   1.807       .  S
C1920      H1924   1.083       .  S
S1921      H1926   1.407       .  S
S1923      H1927   1.407       .  S
H1928      S3864   1.405       .  S
C1929      C1930   1.401       .  A
C1929      C1934   1.395       .  A
C1929      H1939   1.084       .  S
C1930      C1935   1.481       .  S
C1930      C1931   1.414       .  A
C1931      C1932   1.402       .  A
C1931      S1936   1.805       .  S
C1932      C1933   1.406       .  A
C1932      H1937   1.084       .  S
C1933      C1934   1.415       .  A
C1934      S1938   1.803       .  S
C1935      C1940   1.410       .  A
C1935      C1944   1.400       .  A
S1936      H1952   1.405       .  S
S1938      H1949   1.408       .  S
C1940      C1941   1.405       .  A
C1940      S1945   1.807       .  S
C1941      C1942   1.408       .  A
C1941      H1946   1.082       .  S
C1942      C1943   1.418       .  A
C1943      C1944   1.396       .  A
C1943      S1947   1.802       .  S
C1944      H1948   1.084       .  S
S1945      H1950   1.407       .  S
S1947      H1951   1.408       .  S
O1953      C1956   1.267       .  A
O1953     Cd1958   2.447       .  S
C1954      O1963   1.263       .  A
C1954      O1959   1.269       .  A
C1954      C3837   1.480       .  S
O1955      C1961   1.264       .  A
O1955     Cd1958   2.393       .  S
C1956      O1964   1.267       .  A
C1956      C3861   1.486       .  S
C1957      O1962   1.269       .  A
C1957      O1960   1.265       .  A
C1957      C3894   1.482       .  S
Cd1958     O1965   2.479       .  S
Cd1958     O1964   2.448       .  S
Cd1958     O1963   2.407       .  S
Cd1958     O1959   2.476       .  S
Cd1958     O1962   2.464       .  S
Cd1958     O1960   2.433       .  S
C1961      O1965   1.271       .  A
C1961      C3813   1.478       .  S
O1966      C1969   1.267       .  A
O1966     Cd1971   2.445       .  S
C1967      O1976   1.263       .  A
C1967      O1972   1.268       .  A
C1967      C3774   1.474       .  S
O1968      C1974   1.268       .  A
O1968     Cd1971   2.481       .  S
C1969      O1977   1.267       .  A
C1969      C3789   1.485       .  S
C1970      O1975   1.267       .  A
C1970      O1973   1.266       .  A
C1970      C3885   1.478       .  S
Cd1971     O1978   2.400       .  S
Cd1971     O1977   2.441       .  S
Cd1971     O1976   2.419       .  S
Cd1971     O1972   2.470       .  S
Cd1971     O1975   2.442       .  S
Cd1971     O1973   2.450       .  S
C1974      O1978   1.262       .  A
C1974      C3741   1.470       .  S
O1979      C1982   1.265       .  A
O1979     Cd1984   2.449       .  S
C1980      O1989   1.264       .  A
C1980      O1985   1.267       .  A
C1980      C3669   1.479       .  S
O1981      C1987   1.264       .  A
O1981     Cd1984   2.458       .  S
C1982      O1990   1.268       .  A
C1982      C3702   1.489       .  S
C1983      O1988   1.266       .  A
C1983      O1986   1.261       .  A
C1983      C3717   1.484       .  S
Cd1984     O1991   2.467       .  S
Cd1984     O1990   2.457       .  S
Cd1984     O1989   2.443       .  S
Cd1984     O1985   2.461       .  S
Cd1984     O1988   2.503       .  S
Cd1984     O1986   2.435       .  S
C1987      O1991   1.265       .  A
C1987      C3645   1.479       .  S
O1992      C1995   1.268       .  A
O1992     Cd1997   2.436       .  S
C1993      O2002   1.263       .  A
C1993      O1998   1.266       .  A
C1993      C3597   1.478       .  S
O1994      C2000   1.269       .  A
O1994     Cd1997   2.494       .  S
C1995      O2003   1.268       .  A
C1995      C3870   1.482       .  S
C1996      O2001   1.267       .  A
C1996      O1999   1.264       .  A
C1996      C3726   1.477       .  S
Cd1997     O2004   2.389       .  S
Cd1997     O2003   2.458       .  S
Cd1997     O2002   2.423       .  S
Cd1997     O1998   2.469       .  S
Cd1997     O2001   2.471       .  S
Cd1997     O1999   2.432       .  S
C2000      O2004   1.261       .  A
C2000      C3630   1.465       .  S
O2005      C2008   1.270       .  A
O2005     Cd2010   2.479       .  S
C2006      O2015   1.266       .  A
C2006      O2011   1.270       .  A
C2006      C3525   1.487       .  S
O2007      C2013   1.270       .  A
O2007     Cd2010   2.492       .  S
C2008      O2016   1.264       .  A
C2008      C3798   1.478       .  S
C2009      O2012   1.268       .  A
C2009      C3573   1.485       .  S
Cd2010     O2017   2.408       .  S
Cd2010     O2016   2.423       .  S
Cd2010     O2014   2.459       .  S
C2013      O2017   1.263       .  A
C2013      C3558   1.473       .  S
O2018      C2021   1.272       .  A
O2018     Cd2023   2.487       .  S
C2019      O2028   1.265       .  A
C2019      O2024   1.272       .  A
C2019      C3462   1.476       .  S
O2020      C2026   1.272       .  A
O2020     Cd2023   2.482       .  S
C2021      O2029   1.265       .  A
C2021      C3501   1.477       .  S
C2022      O2027   1.270       .  A
C2022      O2025   1.266       .  A
C2022      C3582   1.487       .  S
Cd2023     O2030   2.411       .  S
Cd2023     O2029   2.407       .  S
Cd2023     O2028   2.399       .  S
Cd2023     O2024   2.471       .  S
Cd2023     O2027   2.446       .  S
Cd2023     O2025   2.433       .  S
C2026      O2030   1.263       .  A
C2026      C3486   1.474       .  S
O2031      C2034   1.269       .  A
O2031     Cd2036   2.466       .  S
C2032      O2041   1.263       .  A
C2032      O2037   1.269       .  A
C2032      C3405   1.472       .  S
O2033     Cd2036   2.498       .  S
C2035      O2040   1.268   1_556  A
C2035      O2038   1.264       .  A
C2035      C3429   1.482       .  S
Cd2036     O2043   2.387       .  S
Cd2036     O2041   2.421   1_554  S
Cd2036     O2037   2.485   1_554  S
Cd2036     O2040   2.476       .  S
Cd2036     O2038   2.446   1_554  S
C2039      C3381   1.478       .  S
O2044      C2047   1.271       .  A
O2044     Cd2049   2.463       .  S
C2045      O2054   1.264       .  A
C2045      O2050   1.271       .  A
C2045      C3333   1.469       .  S
O2046      C2052   1.272       .  A
O2046     Cd2049   2.484       .  S
C2047      O2055   1.267       .  A
C2047      C3510   1.482       .  S
C2048      O2053   1.270       .  A
C2048      O2051   1.268       .  A
C2048      C3438   1.481       .  S
Cd2049     O2056   2.396       .  S
Cd2049     O2055   2.428       .  S
Cd2049     O2054   2.405       .  S
Cd2049     O2050   2.466       .  S
Cd2049     O2053   2.449       .  S
Cd2049     O2051   2.440       .  S
C2052      O2056   1.263       .  A
C2052      C3366   1.472       .  S
O2057      C2060   1.269       .  A
O2057     Cd2062   2.478       .  S
C2058      O2067   1.264       .  A
C2058      O2063   1.270       .  A
C2058      C3549   1.478       .  S
O2059      C2065   1.266       .  A
O2059     Cd2062   2.448       .  S
C2060      O2068   1.264       .  A
C2060      C3285   1.478       .  S
C2061      O2066   1.269       .  A
C2061      O2064   1.262       .  A
C2061      C3534   1.473       .  S
Cd2062     O2069   2.447       .  S
Cd2062     O2068   2.425       .  S
Cd2062     O2067   2.426       .  S
Cd2062     O2063   2.478       .  S
Cd2062     O2066   2.490       .  S
Cd2062     O2064   2.393       .  S
C2065      O2069   1.267       .  A
C2065      C3318   1.481       .  S
O2070      C2073   1.269       .  A
O2070     Cd2075   2.481       .  S
C2071      O2080   1.267       .  A
C2071      O2076   1.270       .  A
C2071      C3261   1.482       .  S
O2072      C2078   1.271       .  A
O2072     Cd2075   2.490       .  S
C2073      O2081   1.262       .  A
C2073      C3222   1.482       .  S
C2074      O2079   1.269       .  A
C2074      O2077   1.264       .  A
C2074      C3309   1.486       .  S
Cd2075     O2082   2.410       .  S
Cd2075     O2081   2.416       .  S
Cd2075     O2080   2.437       .  S
Cd2075     O2076   2.446       .  S
Cd2075     O2079   2.487       .  S
Cd2075     O2077   2.412       .  S
C2078      O2082   1.263       .  A
C2078      C3237   1.474       .  S
O2083      C2086   1.270       .  A
O2083     Cd2088   2.456       .  S
C2084      O2093   1.265       .  A
C2084      O2089   1.268       .  A
C2084      C3165   1.473       .  S
O2085      C2091   1.271       .  A
O2085     Cd2088   2.514       .  S
C2086      O2094   1.266       .  A
C2086      C3126   1.479       .  S
C2087      O2092   1.271       .  A
C2087      O2090   1.265       .  A
C2087      C3198   1.484       .  S
Cd2088     O2095   2.412       .  S
Cd2088     O2094   2.411       .  S
Cd2088     O2093   2.426       .  S
Cd2088     O2089   2.458       .  S
Cd2088     O2092   2.460       .  S
Cd2088     O2090   2.434       .  S
C2091      O2095   1.262       .  A
C2091      C3141   1.476       .  S
O2096      C2099   1.269       .  A
O2096     Cd2101   2.462       .  S
C2097      O2102   1.273   1_554  A
O2098      C2104   1.270       .  A
C2099      O2107   1.265       .  A
C2099      C3750   1.481       .  S
C2100      O2105   1.270       .  A
C2100      O2103   1.266       .  A
C2100      C3189   1.477       .  S
Cd2101     O2108   2.394   1_556  S
Cd2101     O2107   2.413       .  S
Cd2101     O2102   2.466       .  S
Cd2101     O2105   2.453       .  S
Cd2101     O2103   2.423       .  S
C2104      C3765   1.469       .  S
O2109      C2112   1.267       .  A
O2109     Cd2114   2.458       .  S
C2110      O2119   1.264       .  A
C2110      O2115   1.269       .  A
C2110      C3045   1.471       .  S
O2111      C2117   1.268       .  A
O2111     Cd2114   2.463       .  S
C2112      O2120   1.265       .  A
C2112      C3270   1.474       .  S
C2113      O2118   1.270       .  A
C2113      O2116   1.261       .  A
C2113      C3078   1.478       .  S
Cd2114     O2121   2.452       .  S
Cd2114     O2120   2.436       .  S
Cd2114     O2119   2.407       .  S
Cd2114     O2115   2.461       .  S
Cd2114     O2118   2.498       .  S
Cd2114     O2116   2.423       .  S
C2117      O2121   1.267       .  A
C2117      C3093   1.481       .  S
O2122      C2125   1.267       .  A
O2122     Cd2127   2.474       .  S
C2123      O2132   1.265       .  A
C2123      O2128   1.268       .  A
C2123      C3030   1.481       .  S
O2124      C2130   1.270       .  A
O2124     Cd2127   2.486       .  S
C2125      O2133   1.263       .  A
C2125      C3390   1.476       .  S
C2126      O2131   1.268       .  A
C2126      O2129   1.263       .  A
C2126      C3102   1.480       .  S
Cd2127     O2134   2.421       .  S
Cd2127     O2133   2.448       .  S
Cd2127     O2132   2.441       .  S
Cd2127     O2128   2.453       .  S
Cd2127     O2131   2.485       .  S
Cd2127     O2129   2.442       .  S
C2130      O2134   1.263       .  A
C2130      C3414   1.476       .  S
O2135      C2138   1.272       .  A
O2135     Cd2140   2.466       .  S
C2136      O2145   1.266       .  A
C2136      O2141   1.270       .  A
C2136      C3174   1.477       .  S
O2137      C2143   1.271       .  A
O2137     Cd2140   2.483       .  S
C2138      O2146   1.264       .  A
C2138      C2958   1.472       .  S
C2139      O2144   1.270       .  A
C2139      O2142   1.266       .  A
C2139      C2997   1.470       .  S
Cd2140     O2147   2.393       .  S
Cd2140     O2146   2.401       .  S
Cd2140     O2145   2.426       .  S
Cd2140     O2141   2.448       .  S
Cd2140     O2144   2.442       .  S
Cd2140     O2142   2.411       .  S
C2143      O2147   1.263       .  A
C2143      C2982   1.470       .  S
O2148      C2151   1.269       .  A
C2149      O2158   1.266       .  A
C2149      O2154   1.270       .  A
C2149      C3021   1.486       .  S
O2150      C2156   1.270       .  A
O2150     Cd2153   2.476       .  S
C2151      O2159   1.264       .  A
C2151      C3654   1.477       .  S
C2152      O2155   1.265       .  A
C2152      C3006   1.470       .  S
Cd2153     O2160   2.384       .  S
Cd2153     O2158   2.449       .  S
Cd2153     O2154   2.444       .  S
Cd2153     O2157   2.467       .  S
C2156      O2160   1.263       .  A
C2156      C3678   1.467       .  S
O2161      C2164   1.271       .  A
O2161     Cd2166   2.468       .  S
C2162      O2171   1.265       .  A
C2162      O2167   1.270       .  A
C2162      C2910   1.480       .  S
O2163      C2169   1.270       .  A
O2163     Cd2166   2.477       .  S
C2164      O2172   1.265       .  A
C2164      C3822   1.478       .  S
C2165      O2170   1.269       .  A
C2165      O2168   1.266       .  A
C2165      C2925   1.478       .  S
Cd2166     O2173   2.400       .  S
Cd2166     O2172   2.404       .  S
Cd2166     O2171   2.435       .  S
Cd2166     O2167   2.461       .  S
Cd2166     O2170   2.452       .  S
Cd2166     O2168   2.438       .  S
C2169      O2173   1.263       .  A
C2169      C3846   1.478       .  S
O2174      C2177   1.269       .  A
O2174     Cd2179   2.449       .  S
C2175      O2180   1.266       .  A
O2176     Cd2179   2.490   1_554  S
C2177      O2185   1.267       .  A
C2177      C2829   1.484       .  S
C2178      O2183   1.269       .  A
C2178      O2181   1.264       .  A
C2178      C2934   1.486       .  S
Cd2179     O2186   2.412       .  S
Cd2179     O2185   2.414       .  S
Cd2179     O2180   2.467       .  S
Cd2179     O2183   2.452       .  S
Cd2179     O2181   2.432       .  S
C2182      C2853   1.473       .  S
O2187      C2190   1.271       .  A
O2187     Cd2192   2.477       .  S
C2188      O2197   1.266       .  A
C2188      O2193   1.271       .  A
C2188      C2901   1.487       .  S
O2189      C2195   1.270       .  A
O2189     Cd2192   2.473       .  S
C2190      O2198   1.262       .  A
C2190      C3621   1.477       .  S
C2191      O2196   1.269       .  A
C2191      O2194   1.264       .  A
C2191      C2805   1.475       .  S
Cd2192     O2199   2.393       .  S
Cd2192     O2198   2.418       .  S
Cd2192     O2197   2.433       .  S
Cd2192     O2193   2.461       .  S
Cd2192     O2196   2.470       .  S
Cd2192     O2194   2.418       .  S
C2195      O2199   1.263       .  A
C2195      C3606   1.466       .  S
O2200      C2203   1.270       .  A
C2201      O2210   1.265       .  A
C2201      O2206   1.269       .  A
C2201      C2781   1.480       .  S
O2202      C2208   1.269       .  A
O2202     Cd2205   2.471       .  S
C2203      O2211   1.263       .  A
C2203      C2757   1.474       .  S
C2204      O2207   1.266       .  A
C2204      C2814   1.473       .  S
Cd2205     O2212   2.407       .  S
Cd2205     O2210   2.428       .  S
Cd2205     O2206   2.463       .  S
Cd2205     O2209   2.447       .  S
C2208      O2212   1.263       .  A
C2208      C2733   1.471       .  S
O2213      C2216   1.268       .  A
O2213     Cd2218   2.461       .  S
C2214      O2223   1.265       .  A
C2214      O2219   1.270       .  A
C2214      C2877   1.480       .  S
O2215      C2221   1.270       .  A
O2215     Cd2218   2.477       .  S
C2216      O2224   1.263       .  A
C2216      C2694   1.476       .  S
C2217      O2222   1.267       .  A
C2217      O2220   1.266       .  A
C2217      C2709   1.481       .  S
Cd2218     O2225   2.403       .  S
Cd2218     O2224   2.428       .  S
Cd2218     O2223   2.423       .  S
Cd2218     O2219   2.447       .  S
Cd2218     O2222   2.452       .  S
Cd2218     O2220   2.438       .  S
C2221      O2225   1.263       .  A
C2221      C2661   1.469       .  S
O2226      C2229   1.270       .  A
O2226     Cd2231   2.469       .  S
C2227      O2236   1.263       .  A
C2227      O2232   1.271       .  A
C2227      C3477   1.474       .  S
O2228      C2234   1.269       .  A
O2228     Cd2231   2.460       .  S
C2229      O2237   1.266       .  A
C2229      C2637   1.481       .  S
C2230      O2235   1.270       .  A
C2230      O2233   1.263       .  A
C2230      C3453   1.483       .  S
Cd2231     O2238   2.443       .  S
Cd2231     O2237   2.446       .  S
Cd2231     O2236   2.395       .  S
Cd2231     O2232   2.494       .  S
Cd2231     O2235   2.486       .  S
Cd2231     O2233   2.414       .  S
C2234      O2238   1.267       .  A
C2234      C2718   1.482       .  S
O2239      C2242   1.267       .  A
O2239     Cd2244   2.454       .  S
C2240      O2249   1.267       .  A
C2240      O2245   1.268       .  A
C2240      C2790   1.478       .  S
O2241      C2247   1.270       .  A
O2241     Cd2244   2.497       .  S
C2242      O2250   1.264       .  A
C2242      C2598   1.476       .  S
C2243      O2248   1.269       .  A
C2243      O2246   1.264       .  A
C2243      C2622   1.478       .  S
Cd2244     O2251   2.378       .  S
Cd2244     O2250   2.448       .  S
Cd2244     O2249   2.449       .  S
Cd2244     O2245   2.435       .  S
Cd2244     O2248   2.467       .  S
Cd2244     O2246   2.418       .  S
C2247      O2251   1.262       .  A
C2247      C2574   1.472       .  S
O2252      C2255   1.272       .  A
O2252     Cd2257   2.470       .  S
C2253      O2262   1.266       .  A
C2253      O2258   1.271       .  A
C2253      C2646   1.477       .  S
O2254      C2260   1.272       .  A
O2254     Cd2257   2.498       .  S
C2255      O2263   1.265       .  A
C2255      C3357   1.477       .  S
C2256      O2261   1.271       .  A
C2256      O2259   1.266       .  A
C2256      C2613   1.474       .  S
Cd2257     O2264   2.392       .  S
Cd2257     O2263   2.392       .  S
Cd2257     O2262   2.416       .  S
Cd2257     O2258   2.457       .  S
Cd2257     O2261   2.449       .  S
Cd2257     O2259   2.414       .  S
C2260      O2264   1.263       .  A
C2260      C3342   1.477       .  S
O2265      C2268   1.269       .  A
O2265     Cd2270   2.471       .  S
C2266      O2275   1.262       .  A
C2266      O2271   1.270       .  A
C2266      C3150   1.482       .  S
O2267      C2273   1.269       .  A
O2267     Cd2270   2.480       .  S
C2268      O2276   1.265       .  A
C2268      C2526   1.481       .  S
C2269      O2274   1.267       .  A
C2269      O2272   1.265       .  A
C2269      C2541   1.486       .  S
Cd2270     O2277   2.403       .  S
Cd2270     O2276   2.448       .  S
Cd2270     O2275   2.415       .  S
Cd2270     O2271   2.505       .  S
Cd2270     O2274   2.457       .  S
Cd2270     O2272   2.449       .  S
C2273      O2277   1.264       .  A
C2273      C3117   1.472       .  S
O2278      C2281   1.268       .  A
O2278     Cd2283   2.465       .  S
C2279      O2288   1.264       .  A
C2279      O2284   1.272       .  A
C2279      C2862   1.478       .  S
O2280      C2286   1.270       .  A
O2280     Cd2283   2.478       .  S
C2281      O2289   1.266       .  A
C2281      C2502   1.488       .  S
C2282      O2287   1.268       .  A
C2282      O2285   1.267       .  A
C2282      C2550   1.477       .  S
Cd2283     O2290   2.400       .  S
Cd2283     O2289   2.438       .  S
Cd2283     O2288   2.403       .  S
Cd2283     O2284   2.477       .  S
Cd2283     O2287   2.450       .  S
Cd2283     O2285   2.427       .  S
C2286      O2290   1.263       .  A
C2286      C2838   1.472       .  S
O2291      C2294   1.272       .  A
O2291     Cd2296   2.472       .  S
C2292      O2301   1.266       .  A
C2292      O2297   1.270       .  A
C2292      C2445   1.478       .  S
O2293      C2299   1.270       .  A
O2293     Cd2296   2.479       .  S
C2294      O2302   1.265       .  A
C2294      C3246   1.471       .  S
C2295      O2300   1.273       .  A
C2295      O2298   1.264       .  A
C2295      C3213   1.474       .  S
Cd2296     O2303   2.425       .  S
Cd2296     O2302   2.392       .  S
Cd2296     O2301   2.428       .  S
Cd2296     O2297   2.467       .  S
Cd2296     O2300   2.497       .  S
Cd2296     O2298   2.393       .  S
C2299      O2303   1.266       .  A
C2299      C2469   1.489       .  S
O2304      C2307   1.270       .  A
O2304     Cd2309   2.452       .  S
C2305      O2314   1.264       .  A
C2305      O2310   1.272       .  A
C2305      C2670   1.481       .  S
O2306      C2312   1.273       .  A
O2306     Cd2309   2.498       .  S
C2307      O2315   1.268       .  A
C2307      C2493   1.479       .  S
C2308      O2311   1.266       .  A
C2308      C2478   1.475       .  S
Cd2309     O2316   2.387       .  S
Cd2309     O2315   2.437       .  S
Cd2309     O2313   2.476       .  S
C2312      O2316   1.263       .  A
C2312      C2685   1.480       .  S
O2317      C2320   1.269   1_556  A
O2317     Cd2322   2.453       .  S
C2318      O2327   1.263       .  A
C2318      O2323   1.271       .  A
C2318      C2565   1.472       .  S
O2319      C2325   1.272       .  A
O2319     Cd2322   2.493   1_554  S
C2321      O2326   1.270       .  A
C2321      O2324   1.266       .  A
C2321      C2421   1.480       .  S
Cd2322     O2329   2.384   1_556  S
Cd2322     O2327   2.412       .  S
Cd2322     O2323   2.458       .  S
Cd2322     O2326   2.465       .  S
Cd2322     O2324   2.432       .  S
C2325      O2329   1.263       .  A
O2330      C2333   1.270       .  A
O2330     Cd2335   2.467       .  S
C2331      O2340   1.264       .  A
C2331      O2336   1.271       .  A
C2331      C3069   1.477       .  S
O2332      C2338   1.272       .  A
O2332     Cd2335   2.484       .  S
C2333      O2341   1.266       .  A
C2333      C2454   1.475       .  S
C2334      O2339   1.270       .  A
C2334      O2337   1.265       .  A
C2334      C2430   1.485       .  S
Cd2335     O2342   2.381       .  S
Cd2335     O2341   2.434       .  S
Cd2335     O2340   2.404       .  S
Cd2335     O2336   2.480       .  S
Cd2335     O2339   2.469       .  S
Cd2335     O2337   2.437       .  S
C2338      O2342   1.264       .  A
C2338      C3054   1.477       .  S
O2343      C2346   1.268       .  A
O2343     Cd2348   2.453       .  S
C2344      O2353   1.265       .  A
C2344      O2349   1.272       .  A
C2344      C2742   1.472       .  S
O2345      C2351   1.271       .  A
O2345     Cd2348   2.490       .  S
C2346      O2354   1.266       .  A
C2346      C2406   1.484       .  S
C2347      O2352   1.271       .  A
C2347      O2350   1.265       .  A
C2347      C2373   1.479       .  S
Cd2348     O2355   2.401       .  S
Cd2348     O2354   2.426       .  S
Cd2348     O2353   2.396       .  S
Cd2348     O2349   2.448       .  S
Cd2348     O2352   2.451       .  S
Cd2348     O2350   2.412       .  S
C2351      O2355   1.262       .  A
C2351      C2766   1.472       .  S
O2356      C2359   1.269       .  A
O2356     Cd2361   2.449       .  S
C2357      O2366   1.264       .  A
C2357      O2362   1.271       .  A
C2357      C2973   1.475       .  S
O2358      C2364   1.271       .  A
O2358     Cd2361   2.503       .  S
C2359      O2367   1.267       .  A
C2359      C2517   1.477       .  S
C2360      O2365   1.270       .  A
C2360      O2363   1.265       .  A
C2360      C2382   1.481       .  S
Cd2361     O2368   2.393       .  S
Cd2361     O2367   2.441       .  S
Cd2361     O2366   2.402       .  S
Cd2361     O2362   2.477       .  S
Cd2361     O2365   2.467       .  S
Cd2361     O2363   2.405       .  S
C2364      O2368   1.264       .  A
C2364      C2949   1.486       .  S
C2369      C2370   1.400       .  A
C2369      C2374   1.396       .  A
C2369      H2379   1.084       .  S
C2370      C2375   1.473       .  S
C2370      C2371   1.410       .  A
C2371      C2372   1.397       .  A
C2371      S2376   1.804       .  S
C2372      C2373   1.405       .  A
C2372      H2377   1.084       .  S
C2373      C2374   1.417       .  A
C2374      S2378   1.803       .  S
C2375      C2380   1.405       .  A
C2375      C2384   1.401       .  A
S2376      H2392   1.405       .  S
S2378      H2389   1.407       .  S
C2380      C2381   1.398       .  A
C2380      S2385   1.808       .  S
C2381      C2382   1.408       .  A
C2381      H2386   1.082       .  S
C2382      C2383   1.415       .  A
C2383      C2384   1.399       .  A
C2383      S2387   1.801       .  S
C2384      H2388   1.084       .  S
S2385      H2390   1.407       .  S
S2387      H2391   1.408       .  S
C2393      C2394   1.401   1_565  A
C2393      C2398   1.399       .  A
C2393      H2403   1.084       .  S
C2394      C2399   1.474       .  S
C2394      C2395   1.412   1_545  A
C2395      C2396   1.395       .  A
C2395      S2400   1.806   1_565  S
C2396      C2397   1.403       .  A
C2397      C2398   1.413       .  A
C2398      S2402   1.802       .  S
C2399      C2404   1.405       .  A
C2399      C2408   1.400       .  A
S2400      H2416   1.406       .  S
S2402      H2413   1.407       .  S
C2404      C2405   1.400       .  A
C2404      S2409   1.807       .  S
C2405      C2406   1.410       .  A
C2405      H2410   1.082       .  S
C2406      C2407   1.416       .  A
C2407      C2408   1.397       .  A
C2407      S2411   1.801       .  S
C2408      H2412   1.084   1_545  S
S2409      H2414   1.407       .  S
S2411      H2415   1.408       .  S
C2417      C2418   1.402       .  A
C2417      C2422   1.399       .  A
C2417      H2427   1.084       .  S
C2418      C2423   1.477       .  S
C2418      C2419   1.412       .  A
C2419      C2420   1.400       .  A
C2419      S2424   1.806       .  S
C2420      C2421   1.406       .  A
C2420      H2425   1.084       .  S
C2421      C2422   1.414       .  A
C2422      S2426   1.802       .  S
C2423      C2428   1.408       .  A
C2423      C2432   1.398       .  A
S2424      H2440   1.403       .  S
S2426      H2437   1.407       .  S
C2428      C2429   1.404       .  A
C2428      S2433   1.806       .  S
C2429      C2430   1.407       .  A
C2429      H2434   1.082       .  S
C2430      C2431   1.420       .  A
C2431      C2432   1.398       .  A
C2431      S2435   1.803       .  S
C2432      H2436   1.084       .  S
S2433      H2438   1.407       .  S
S2435      H2439   1.407       .  S
C2441      C2442   1.400       .  A
C2441      C2446   1.395       .  A
C2441      H2451   1.084       .  S
C2442      C2447   1.481       .  S
C2442      C2443   1.413       .  A
C2443      C2444   1.402       .  A
C2443      S2448   1.803       .  S
C2444      C2445   1.404       .  A
C2444      H2449   1.084       .  S
C2445      C2446   1.416       .  A
C2446      S2450   1.801       .  S
C2447      C2452   1.411       .  A
C2447      C2456   1.401       .  A
S2448      H2464   1.407       .  S
S2450      H2461   1.408       .  S
C2452      C2453   1.406       .  A
C2452      S2457   1.805       .  S
C2453      C2454   1.404       .  A
C2453      H2458   1.083       .  S
C2454      C2455   1.415       .  A
C2455      C2456   1.395       .  A
C2455      S2459   1.804       .  S
C2456      H2460   1.084       .  S
S2457      H2462   1.407       .  S
S2459      H2463   1.406       .  S
C2465      C2466   1.403       .  A
C2465      C2470   1.401       .  A
C2465      H2475   1.084       .  S
C2466      C2471   1.479       .  S
C2466      C2467   1.410       .  A
C2467      C2468   1.398       .  A
C2468      C2469   1.409       .  A
C2468      H2473   1.083       .  S
C2469      C2470   1.417       .  A
C2470      S2474   1.801       .  S
C2471      C2476   1.410       .  A
C2471      C2480   1.401       .  A
S2472      H2488   1.406       .  S
S2474      H2485   1.408       .  S
C2476      C2477   1.403       .  A
C2476      S2481   1.807       .  S
C2477      C2478   1.403       .  A
C2477      H2482   1.083       .  S
C2478      C2479   1.414       .  A
C2479      C2480   1.398       .  A
C2479      S2483   1.804       .  S
C2480      H2484   1.084       .  S
S2481      H2486   1.407       .  S
C2489      C2490   1.402       .  A
C2489      C2494   1.399       .  A
C2489      H2499   1.084       .  S
C2490      C2495   1.478   1_565  S
C2490      C2491   1.414       .  A
C2491      C2492   1.397       .  A
C2491      S2496   1.805   1_565  S
C2492      C2493   1.404       .  A
C2492      H2497   1.084       .  S
C2493      C2494   1.415       .  A
C2494      S2498   1.802       .  S
C2495      C2500   1.406       .  A
C2495      C2504   1.400   1_545  A
S2496      H2512   1.405       .  S
S2498      H2509   1.408       .  S
C2500      C2501   1.403       .  A
C2500      S2505   1.806       .  S
C2501      C2502   1.410       .  A
C2501      H2506   1.082       .  S
C2502      C2503   1.417       .  A
C2503      C2504   1.397   1_545  A
C2503      S2507   1.800       .  S
C2504      H2508   1.084       .  S
S2505      H2510   1.407       .  S
S2507      H2511   1.407       .  S
C2513      C2514   1.403       .  A
C2513      C2518   1.396       .  A
C2513      H2523   1.084   1_556  S
C2514      C2519   1.484       .  S
C2514      C2515   1.413       .  A
C2515      C2516   1.400       .  A
C2515      S2520   1.804       .  S
C2516      C2517   1.404       .  A
C2516      H2521   1.084       .  S
C2517      C2518   1.414       .  A
C2518      S2522   1.803       .  S
C2519      C2528   1.401       .  A
S2520      H2536   1.406       .  S
S2522      H2533   1.408       .  S
C2524      C2525   1.406       .  A
C2524      S2529   1.807       .  S
C2525      C2526   1.405       .  A
C2525      H2530   1.083       .  S
C2526      C2527   1.416       .  A
C2527      S2531   1.803       .  S
C2528      H2532   1.084       .  S
S2529      H2534   1.407       .  S
S2531      H2535   1.406       .  S
C2537      C2538   1.399       .  A
C2537      C2542   1.402       .  A
C2537      H2547   1.083       .  S
C2538      C2543   1.473       .  S
C2538      C2539   1.410       .  A
C2539      C2540   1.398       .  A
C2539      S2544   1.808       .  S
C2540      C2541   1.407       .  A
C2540      H2545   1.084       .  S
C2541      C2542   1.419       .  A
C2542      S2546   1.809       .  S
C2543      C2548   1.406       .  A
C2543      C2552   1.400       .  A
S2544      H2560   1.402       .  S
S2546      H2557   1.407       .  S
C2548      C2549   1.400       .  A
C2548      S2553   1.806       .  S
C2549      C2550   1.406       .  A
C2549      H2554   1.083       .  S
C2550      C2551   1.416       .  A
C2551      C2552   1.398       .  A
C2551      S2555   1.802       .  S
C2552      H2556   1.084       .  S
S2553      H2558   1.407       .  S
S2555      H2559   1.408       .  S
C2561      C2562   1.397       .  A
C2561      C2566   1.396   1_455  A
C2561      H2571   1.084       .  S
C2562      C2567   1.469       .  S
C2562      C2563   1.413   1_455  A
C2563      C2564   1.396       .  A
C2563      S2568   1.806       .  S
C2564      C2565   1.401       .  A
C2564      H2569   1.084       .  S
C2565      C2566   1.418       .  A
C2566      S2570   1.803       .  S
C2567      C2572   1.405       .  A
C2567      C2576   1.401       .  A
S2568      H2584   1.403   1_655  S
S2570      H2581   1.404       .  S
C2572      C2573   1.395       .  A
C2572      S2577   1.808       .  S
C2573      C2574   1.405       .  A
C2573      H2578   1.083       .  S
C2574      C2575   1.414       .  A
C2575      C2576   1.400       .  A
C2575      S2579   1.800       .  S
C2576      H2580   1.084       .  S
S2577      H2582   1.407       .  S
S2579      H2583   1.407       .  S
C2585      C2586   1.405   1_655  A
C2585      C2590   1.404       .  A
C2585      H2595   1.084       .  S
C2586      C2591   1.477       .  S
C2586      C2587   1.408       .  A
C2587      C2588   1.391   1_455  A
C2587      S2592   1.805       .  S
C2588      C2589   1.407       .  A
C2589      C2590   1.415       .  A
C2590      S2594   1.800       .  S
C2591      C2596   1.409       .  A
C2591      C2600   1.401       .  A
S2592      H2608   1.406       .  S
S2594      H2605   1.407       .  S
C2596      C2597   1.400       .  A
C2596      S2601   1.807       .  S
C2597      C2598   1.404       .  A
C2597      H2602   1.083       .  S
C2598      C2599   1.415       .  A
C2599      C2600   1.399       .  A
C2599      S2603   1.803       .  S
C2600      H2604   1.084       .  S
S2601      H2606   1.407       .  S
S2603      H2607   1.407       .  S
C2609      C2610   1.400       .  A
C2609      C2614   1.397       .  A
C2609      H2619   1.084       .  S
C2610      C2615   1.471       .  S
C2610      C2611   1.411       .  A
C2611      C2612   1.397       .  A
C2611      S2616   1.805       .  S
C2612      C2613   1.404       .  A
C2612      H2617   1.084       .  S
C2613      C2614   1.415       .  A
C2614      S2618   1.803       .  S
C2615      C2620   1.407       .  A
C2615      C2624   1.397       .  A
S2616      H2632   1.404       .  S
S2618      H2629   1.407       .  S
C2620      C2621   1.403       .  A
C2620      S2625   1.806       .  S
C2621      C2622   1.406       .  A
C2621      H2626   1.083       .  S
C2622      C2623   1.418       .  A
C2623      C2624   1.394       .  A
C2623      S2627   1.803       .  S
C2624      H2628   1.084       .  S
S2625      H2630   1.407       .  S
S2627      H2631   1.408       .  S
C2633      C2634   1.401       .  A
C2633      C2638   1.401       .  A
C2633      H2643   1.084       .  S
C2634      C2639   1.478       .  S
C2634      C2635   1.412       .  A
C2635      C2636   1.398       .  A
C2635      S2640   1.805       .  S
C2636      C2637   1.404       .  A
C2636      H2641   1.084       .  S
C2637      C2638   1.417       .  A
C2638      S2642   1.802       .  S
C2639      C2648   1.401       .  A
S2640      H2656   1.406       .  S
S2642      H2653   1.407       .  S
C2644      C2645   1.400       .  A
C2644      S2649   1.807       .  S
C2645      C2646   1.404       .  A
C2645      H2650   1.083       .  S
C2646      C2647   1.415       .  A
C2647      S2651   1.803       .  S
C2648      H2652   1.084       .  S
S2649      H2654   1.407       .  S
S2651      H2655   1.408       .  S
C2657      C2658   1.403       .  A
C2657      C2662   1.400       .  A
C2657      H2667   1.084       .  S
C2658      C2663   1.476       .  S
C2658      C2659   1.411       .  A
C2659      C2660   1.395       .  A
C2659      S2664   1.806       .  S
C2660      C2661   1.403       .  A
C2660      H2665   1.084       .  S
C2661      C2662   1.412       .  A
C2662      S2666   1.802       .  S
C2663      C2668   1.410       .  A
C2663      C2672   1.397       .  A
S2664      H2680   1.406       .  S
S2666      H2677   1.407       .  S
C2668      C2669   1.402       .  A
C2668      S2673   1.807       .  S
C2669      C2670   1.404       .  A
C2669      H2674   1.083       .  S
C2670      C2671   1.421       .  A
C2671      C2672   1.397       .  A
C2671      S2675   1.803       .  S
C2672      H2676   1.084       .  S
S2673      H2678   1.407       .  S
S2675      H2679   1.406       .  S
C2681      C2682   1.404       .  A
C2681      C2686   1.402       .  A
C2681      H2691   1.084       .  S
C2682      C2687   1.476       .  S
C2682      C2683   1.408       .  A
C2683      C2684   1.394       .  A
C2683      S2688   1.806       .  S
C2684      C2685   1.408       .  A
C2684      H2689   1.084       .  S
C2685      C2686   1.413       .  A
C2686      S2690   1.800       .  S
C2687      C2692   1.410       .  A
C2687      C2696   1.400       .  A
S2688      H2704   1.406       .  S
S2690      H2701   1.407       .  S
C2692      C2693   1.400       .  A
C2692      S2697   1.808       .  S
C2693      C2694   1.404       .  A
C2693      H2698   1.083       .  S
C2694      C2695   1.416       .  A
C2695      C2696   1.398       .  A
C2695      S2699   1.803       .  S
C2696      H2700   1.084       .  S
S2697      H2702   1.407       .  S
S2699      H2703   1.407       .  S
C2705      C2706   1.402       .  A
C2705      C2710   1.399       .  A
C2705      H2715   1.084       .  S
C2706      C2711   1.477       .  S
C2706      C2707   1.411       .  A
C2707      C2708   1.397       .  A
C2707      S2712   1.807       .  S
C2708      C2709   1.406       .  A
C2708      H2713   1.084       .  S
C2709      C2710   1.416       .  A
C2710      S2714   1.802       .  S
C2711      C2716   1.408       .  A
C2711      C2720   1.400       .  A
S2712      H2728   1.404       .  S
S2714      H2725   1.408       .  S
C2716      C2717   1.403       .  A
C2716      S2721   1.807       .  S
C2717      C2718   1.407       .  A
C2717      H2722   1.082       .  S
C2718      C2719   1.416       .  A
C2719      C2720   1.398       .  A
C2719      S2723   1.802       .  S
C2720      H2724   1.084       .  S
S2721      H2726   1.407       .  S
S2723      H2727   1.408       .  S
C2729      C2730   1.398       .  A
C2729      C2734   1.394       .  A
C2729      H2739   1.084       .  S
C2730      C2735   1.469       .  S
C2730      C2731   1.413       .  A
C2731      C2732   1.399       .  A
C2731      S2736   1.808       .  S
C2732      C2733   1.403       .  A
C2732      H2737   1.084       .  S
C2733      C2734   1.415       .  A
C2734      S2738   1.805       .  S
C2735      C2740   1.406   1_455  A
C2735      C2744   1.399   1_455  A
S2736      H2752   1.403       .  S
S2738      H2749   1.407       .  S
C2740      C2741   1.398       .  A
C2740      S2745   1.806   1_655  S
C2741      C2742   1.404       .  A
C2741      H2746   1.083       .  S
C2742      C2743   1.415       .  A
C2743      C2744   1.400       .  A
C2743      S2747   1.808       .  S
C2744      H2748   1.083       .  S
S2745      H2750   1.407       .  S
S2747      H2751   1.407       .  S
C2753      C2754   1.401       .  A
C2753      C2758   1.398       .  A
C2753      H2763   1.084       .  S
C2754      C2759   1.478       .  S
C2754      C2755   1.412       .  A
C2755      C2756   1.398       .  A
C2755      S2760   1.804       .  S
C2756      C2757   1.403       .  A
C2756      H2761   1.084       .  S
C2757      C2758   1.415       .  A
C2758      S2762   1.804       .  S
C2759      C2764   1.408       .  A
C2759      C2768   1.403       .  A
S2760      H2776   1.406       .  S
S2762      H2773   1.407       .  S
C2764      C2765   1.401       .  A
C2764      S2769   1.807       .  S
C2765      C2766   1.406   1_455  A
C2765      H2770   1.083       .  S
C2766      C2767   1.411       .  A
C2767      C2768   1.398   1_655  A
C2767      S2771   1.802       .  S
C2768      H2772   1.084       .  S
S2769      H2774   1.407       .  S
S2771      H2775   1.407       .  S
C2777      C2778   1.400   1_545  A
C2777      C2782   1.398       .  A
C2777      H2787   1.084       .  S
C2778      C2783   1.473       .  S
C2778      C2779   1.412       .  A
C2779      C2780   1.398   1_565  A
C2779      S2784   1.807       .  S
C2780      C2781   1.405       .  A
C2780      H2785   1.084       .  S
C2781      C2782   1.416       .  A
C2782      S2786   1.803       .  S
C2783      C2788   1.408       .  A
C2783      C2792   1.400       .  A
S2784      H2800   1.403       .  S
S2786      H2797   1.408       .  S
C2788      C2789   1.398       .  A
C2788      S2793   1.809   1_565  S
C2789      C2790   1.405       .  A
C2789      H2794   1.083       .  S
C2790      C2791   1.416       .  A
C2791      C2792   1.401       .  A
C2791      S2795   1.802       .  S
C2792      H2796   1.084       .  S
S2793      H2798   1.407   1_545  S
S2795      H2799   1.407       .  S
C2801      C2802   1.399       .  A
C2801      C2806   1.395       .  A
C2802      C2807   1.474       .  S
C2802      C2803   1.412       .  A
C2803      C2804   1.400       .  A
C2803      S2808   1.804       .  S
C2804      C2805   1.404       .  A
C2804      H2809   1.083       .  S
C2805      C2806   1.416       .  A
C2807      C2812   1.407       .  A
C2807      C2816   1.401       .  A
S2808      H2824   1.405       .  S
C2813      H2818   1.083       .  S
C2814      C2815   1.413       .  A
C2815      C2816   1.400       .  A
C2815      S2819   1.802       .  S
C2816      H2820   1.084       .  S
S2817      H2822   1.407   1_554  S
S2819      H2823   1.407       .  S
C2825      C2826   1.400       .  A
C2825      C2830   1.398       .  A
C2825      H2835   1.084       .  S
C2826      C2831   1.473       .  S
C2826      C2827   1.407       .  A
C2827      C2828   1.396       .  A
C2827      S2832   1.804       .  S
C2828      C2829   1.409       .  A
C2828      H2833   1.084       .  S
C2829      C2830   1.418       .  A
C2830      S2834   1.801       .  S
C2831      C2836   1.410       .  A
C2831      C2840   1.398       .  A
S2832      H2848   1.406       .  S
S2834      H2845   1.408       .  S
C2836      C2837   1.402       .  A
C2836      S2841   1.807       .  S
C2837      C2838   1.402       .  A
C2837      H2842   1.083       .  S
C2838      C2839   1.416       .  A
C2839      C2840   1.395       .  A
C2839      S2843   1.806       .  S
C2840      H2844   1.084       .  S
S2841      H2846   1.407       .  S
S2843      H2847   1.407       .  S
C2849      C2850   1.400       .  A
C2849      C2854   1.398       .  A
C2849      H2859   1.084       .  S
C2850      C2855   1.478       .  S
C2850      C2851   1.415       .  A
C2851      C2852   1.400       .  A
C2851      S2856   1.806       .  S
C2852      C2853   1.402       .  A
C2852      H2857   1.083       .  S
C2853      C2854   1.415       .  A
C2855      C2860   1.409       .  A
C2855      C2864   1.400       .  A
S2856      H2872   1.405       .  S
S2858      H2869   1.407       .  S
C2860      C2861   1.401       .  A
C2860      S2865   1.807       .  S
C2861      C2862   1.404       .  A
C2861      H2866   1.083       .  S
C2862      C2863   1.416       .  A
C2863      C2864   1.402       .  A
C2863      S2867   1.809       .  S
C2864      H2868   1.083       .  S
S2865      H2870   1.407       .  S
S2867      H2871   1.407       .  S
C2873      C2874   1.399       .  A
C2873      C2878   1.403       .  A
C2873      H2883   1.083       .  S
C2874      C2879   1.471       .  S
C2874      C2875   1.408       .  A
C2875      C2876   1.394       .  A
C2875      S2880   1.804       .  S
C2876      C2877   1.405       .  A
C2876      H2881   1.084       .  S
C2877      C2878   1.418       .  A
C2878      S2882   1.808       .  S
C2879      C2884   1.408       .  A
C2879      C2888   1.399   1_565  A
S2880      H2896   1.404   1_565  S
S2882      H2893   1.407       .  S
C2884      C2885   1.400   1_565  A
C2884      S2889   1.808       .  S
C2885      C2886   1.403       .  A
C2885      H2890   1.083       .  S
C2886      C2887   1.414       .  A
C2887      C2888   1.397       .  A
C2887      S2891   1.803       .  S
C2888      H2892   1.084       .  S
S2889      H2894   1.407       .  S
C2897      C2898   1.400       .  A
C2897      C2902   1.401       .  A
C2897      H2907   1.084       .  S
C2898      C2903   1.476       .  S
C2898      C2899   1.410       .  A
C2899      C2900   1.397       .  A
C2899      S2904   1.804       .  S
C2900      C2901   1.406       .  A
C2900      H2905   1.083       .  S
C2901      C2902   1.420       .  A
C2902      S2906   1.802       .  S
C2903      C2908   1.408       .  A
C2903      C2912   1.400       .  A
S2904      H2920   1.403       .  S
S2906      H2917   1.408       .  S
C2908      C2909   1.400       .  A
C2908      S2913   1.807       .  S
C2909      C2910   1.405       .  A
C2909      H2914   1.083       .  S
C2910      C2911   1.417       .  A
C2911      C2912   1.401       .  A
C2911      S2915   1.802       .  S
C2912      H2916   1.084       .  S
S2913      H2918   1.407       .  S
S2915      H2919   1.407       .  S
C2921      C2922   1.401       .  A
C2921      C2926   1.398       .  A
C2921      H2931   1.084       .  S
C2922      C2927   1.475       .  S
C2922      C2923   1.412       .  A
C2923      C2924   1.397       .  A
C2923      S2928   1.806       .  S
C2924      C2925   1.404       .  A
C2924      H2929   1.084       .  S
C2925      C2926   1.416       .  A
C2926      S2930   1.803       .  S
C2927      C2932   1.407       .  A
C2927      C2936   1.398       .  A
S2928      H2944   1.405       .  S
S2930      H2941   1.408       .  S
C2932      C2933   1.401       .  A
C2932      S2937   1.806       .  S
C2933      C2934   1.409       .  A
C2933      H2938   1.082       .  S
C2934      C2935   1.421       .  A
C2935      C2936   1.397       .  A
C2935      S2939   1.801       .  S
C2936      H2940   1.084       .  S
S2937      H2942   1.407       .  S
S2939      H2943   1.408       .  S
C2945      C2946   1.404       .  A
C2945      C2950   1.404       .  A
C2945      H2955   1.084   1_556  S
C2946      C2951   1.477       .  S
C2946      C2947   1.407       .  A
C2947      C2948   1.394       .  A
C2947      S2952   1.806       .  S
C2948      C2949   1.408       .  A
C2948      H2953   1.084       .  S
C2949      C2950   1.416       .  A
C2950      S2954   1.798       .  S
C2951      C2956   1.409   1_556  A
C2951      C2960   1.401       .  A
S2952      H2968   1.405       .  S
S2954      H2965   1.407       .  S
C2956      C2957   1.401       .  A
C2956      S2961   1.807       .  S
C2959      C2960   1.400   1_554  A
C2960      H2964   1.084       .  S
S2961      H2966   1.406       .  S
S2963      H2967   1.407       .  S
C2969      C2970   1.399       .  A
C2969      C2974   1.396       .  A
C2969      H2979   1.084       .  S
C2970      C2975   1.474       .  S
C2970      C2971   1.412       .  A
C2971      C2972   1.399       .  A
C2971      S2976   1.805       .  S
C2972      C2973   1.404       .  A
C2972      H2977   1.084       .  S
C2973      C2974   1.415       .  A
C2974      S2978   1.804       .  S
C2975      C2980   1.410       .  A
C2975      C2984   1.398       .  A
S2976      H2992   1.405       .  S
S2978      H2989   1.408       .  S
C2980      C2981   1.403       .  A
C2980      S2985   1.807       .  S
C2981      C2982   1.402       .  A
C2981      H2986   1.083       .  S
C2982      C2983   1.415       .  A
C2983      C2984   1.395       .  A
C2983      S2987   1.806       .  S
C2984      H2988   1.084       .  S
S2985      H2990   1.407       .  S
S2987      H2991   1.407       .  S
C2993      C2994   1.401       .  A
C2993      C2998   1.397       .  A
C2993      H3003   1.084       .  S
C2994      C2999   1.472       .  S
C2994      C2995   1.411       .  A
C2995      C2996   1.395       .  A
C2995      S3000   1.805       .  S
C2996      C2997   1.402       .  A
C2996      H3001   1.084       .  S
C2997      C2998   1.414       .  A
C2998      S3002   1.803       .  S
C2999      C3008   1.399       .  A
S3000      H3016   1.406       .  S
S3002      H3013   1.407       .  S
C3004      C3005   1.401   1_554  A
C3004      S3009   1.808   1_554  S
C3005      H3010   1.082       .  S
C3006      C3007   1.415       .  A
C3007      C3008   1.395       .  A
C3007      S3011   1.804       .  S
C3008      H3012   1.084       .  S
S3009      H3014   1.406       .  S
S3011      H3015   1.407       .  S
C3017      C3018   1.400       .  A
C3017      C3022   1.404       .  A
C3017      H3027   1.083       .  S
C3018      C3023   1.476       .  S
C3018      C3019   1.410       .  A
C3019      C3020   1.395       .  A
C3019      S3024   1.806       .  S
C3020      C3021   1.406       .  A
C3020      H3025   1.084       .  S
C3021      C3022   1.419       .  A
C3022      S3026   1.808       .  S
C3023      C3028   1.408       .  A
C3023      C3032   1.400       .  A
S3024      H3040   1.405       .  S
S3026      H3037   1.407       .  S
C3028      C3029   1.399       .  A
C3028      S3033   1.808       .  S
C3029      C3030   1.405       .  A
C3029      H3034   1.083       .  S
C3030      C3031   1.417       .  A
C3031      C3032   1.400       .  A
C3031      S3035   1.802       .  S
C3032      H3036   1.084       .  S
S3033      H3038   1.407       .  S
S3035      H3039   1.408       .  S
C3041      C3042   1.400       .  A
C3041      C3046   1.396       .  A
C3041      H3051   1.084       .  S
C3042      C3047   1.470       .  S
C3042      C3043   1.413       .  A
C3043      C3044   1.397       .  A
C3043      S3048   1.809       .  S
C3044      C3045   1.403       .  A
C3044      H3049   1.084       .  S
C3045      C3046   1.413       .  A
C3046      S3050   1.804       .  S
C3047      C3052   1.403       .  A
C3047      C3056   1.402       .  A
S3048      H3064   1.401       .  S
S3050      H3061   1.407       .  S
C3052      C3053   1.397       .  A
C3052      S3057   1.807       .  S
C3053      C3054   1.408       .  A
C3053      H3058   1.083       .  S
C3054      C3055   1.414       .  A
C3055      C3056   1.399       .  A
C3055      S3059   1.801       .  S
C3056      H3060   1.084       .  S
S3057      H3062   1.407       .  S
S3059      H3063   1.406       .  S
C3065      C3066   1.400       .  A
C3065      C3070   1.398       .  A
C3065      H3075   1.084       .  S
C3066      C3067   1.411       .  A
C3067      C3068   1.400       .  A
C3067      S3072   1.803       .  S
C3068      C3069   1.404       .  A
C3068      H3073   1.084       .  S
C3069      C3070   1.416       .  A
C3070      S3074   1.804       .  S
C3071      C3080   1.399       .  A
S3072      H3088   1.405   1_556  S
S3074      H3085   1.407       .  S
C3076      S3081   1.807       .  S
C3077      C3078   1.404       .  A
C3078      C3079   1.418       .  A
C3079      C3080   1.398       .  A
C3079      S3083   1.805       .  S
C3080      H3084   1.084       .  S
S3081      H3086   1.407       .  S
S3083      H3087   1.407       .  S
C3089      C3090   1.402       .  A
C3089      C3094   1.399       .  A
C3089      H3099   1.084       .  S
C3090      C3095   1.482       .  S
C3090      C3091   1.411       .  A
C3091      C3092   1.400       .  A
C3091      S3096   1.804       .  S
C3092      C3093   1.406       .  A
C3092      H3097   1.084       .  S
C3093      C3094   1.416       .  A
C3094      S3098   1.802       .  S
C3095      C3100   1.408       .  A
C3095      C3104   1.403       .  A
S3096      H3112   1.406       .  S
S3098      H3109   1.408       .  S
C3100      C3101   1.402       .  A
C3100      S3105   1.806       .  S
C3101      C3102   1.406       .  A
C3101      H3106   1.083       .  S
C3102      C3103   1.413       .  A
C3103      C3104   1.400       .  A
C3103      S3107   1.802       .  S
C3104      H3108   1.084       .  S
S3105      H3110   1.407       .  S
S3107      H3111   1.407       .  S
C3113      C3114   1.403       .  A
C3113      C3118   1.401       .  A
C3113      H3123   1.084       .  S
C3114      C3115   1.410       .  A
C3115      C3116   1.393       .  A
C3116      C3117   1.402       .  A
C3116      H3121   1.084       .  S
C3117      C3118   1.414       .  A
C3118      S3122   1.802       .  S
C3119      C3124   1.404       .  A
C3119      C3128   1.402       .  A
S3120      H3136   1.406       .  S
S3122      H3133   1.407       .  S
C3124      C3125   1.398       .  A
C3124      S3129   1.807       .  S
C3125      C3126   1.408       .  A
C3125      H3130   1.082       .  S
C3126      C3127   1.414       .  A
C3127      C3128   1.397       .  A
C3127      S3131   1.802       .  S
S3129      H3134   1.407       .  S
S3131      H3135   1.407       .  S
C3137      C3138   1.399       .  A
C3137      C3142   1.396       .  A
C3137      H3147   1.084       .  S
C3138      C3143   1.481       .  S
C3138      C3139   1.415       .  A
C3139      C3140   1.405       .  A
C3139      S3144   1.804       .  S
C3140      C3141   1.404       .  A
C3140      H3145   1.084       .  S
C3141      C3142   1.414       .  A
C3142      S3146   1.805       .  S
C3143      C3148   1.409       .  A
C3143      C3152   1.400       .  A
S3144      H3160   1.405       .  S
S3146      H3157   1.406       .  S
C3148      C3149   1.405       .  A
C3148      S3153   1.806       .  S
C3149      C3150   1.406       .  A
C3149      H3154   1.083       .  S
C3150      C3151   1.416       .  A
C3151      C3152   1.401       .  A
C3151      S3155   1.809       .  S
C3152      H3156   1.083       .  S
S3153      H3158   1.407       .  S
S3155      H3159   1.406       .  S
C3161      C3162   1.400       .  A
C3161      C3166   1.399       .  A
C3161      H3171   1.084       .  S
C3162      C3167   1.472       .  S
C3162      C3163   1.412       .  A
C3163      C3164   1.395       .  A
C3163      S3168   1.805       .  S
C3164      C3165   1.402       .  A
C3164      H3169   1.084       .  S
C3165      C3166   1.414       .  A
C3166      S3170   1.803       .  S
C3167      C3172   1.407       .  A
C3167      C3176   1.399       .  A
S3168      H3184   1.403       .  S
S3170      H3181   1.407       .  S
C3172      C3173   1.398       .  A
C3172      S3177   1.807       .  S
C3173      C3174   1.404       .  A
C3173      H3178   1.082       .  S
C3174      C3175   1.417       .  A
C3175      C3176   1.399       .  A
C3175      S3179   1.803       .  S
C3176      H3180   1.084       .  S
S3177      H3182   1.407       .  S
S3179      H3183   1.408       .  S
C3185      C3186   1.400       .  A
C3185      C3190   1.398       .  A
C3185      H3195   1.084       .  S
C3186      C3191   1.478       .  S
C3186      C3187   1.413       .  A
C3187      C3188   1.398       .  A
C3187      S3192   1.805       .  S
C3188      C3189   1.404       .  A
C3188      H3193   1.084       .  S
C3189      C3190   1.416       .  A
C3190      S3194   1.803       .  S
C3191      C3196   1.408       .  A
C3191      C3200   1.400       .  A
S3192      H3208   1.405       .  S
S3194      H3205   1.408       .  S
C3196      C3197   1.401       .  A
C3196      S3201   1.807       .  S
C3197      C3198   1.406       .  A
C3197      H3202   1.082       .  S
C3198      C3199   1.419       .  A
C3199      C3200   1.399       .  A
C3199      S3203   1.803       .  S
C3200      H3204   1.084       .  S
S3201      H3206   1.407       .  S
S3203      H3207   1.408       .  S
C3209      C3210   1.403       .  A
C3209      C3214   1.401       .  A
C3209      H3219   1.084       .  S
C3210      C3215   1.475       .  S
C3210      C3211   1.409       .  A
C3211      C3212   1.397       .  A
C3211      S3216   1.805       .  S
C3212      C3213   1.405       .  A
C3212      H3217   1.085       .  S
C3213      C3214   1.411       .  A
C3214      S3218   1.798       .  S
C3215      C3220   1.409       .  A
C3215      C3224   1.397       .  A
S3216      H3232   1.405       .  S
S3218      H3229   1.405       .  S
C3220      C3221   1.403       .  A
C3220      S3225   1.806       .  S
C3221      C3222   1.406       .  A
C3221      H3226   1.082       .  S
C3222      C3223   1.419       .  A
C3223      C3224   1.396       .  A
C3223      S3227   1.803       .  S
C3224      H3228   1.084       .  S
S3225      H3230   1.407       .  S
S3227      H3231   1.408       .  S
C3233      C3234   1.400   1_554  A
C3233      C3238   1.397   1_554  A
C3233      H3243   1.084       .  S
C3234      C3239   1.474   1_556  S
C3234      C3235   1.413       .  A
C3235      C3236   1.400       .  A
C3235      S3240   1.806       .  S
C3236      C3237   1.403       .  A
C3236      H3241   1.084       .  S
C3237      C3238   1.414       .  A
C3238      S3242   1.804       .  S
C3239      C3248   1.404       .  A
S3240      H3256   1.404       .  S
S3242      H3253   1.407       .  S
C3244      C3245   1.397       .  A
C3244      S3249   1.807       .  S
C3245      C3246   1.406       .  A
C3245      H3250   1.083       .  S
C3247      C3248   1.400       .  A
C3247      S3251   1.802       .  S
C3248      H3252   1.084   1_554  S
S3249      H3254   1.407       .  S
S3251      H3255   1.407       .  S
C3257      C3258   1.400       .  A
C3257      C3262   1.399       .  A
C3257      H3267   1.084       .  S
C3258      C3263   1.474       .  S
C3258      C3259   1.410       .  A
C3259      C3260   1.397       .  A
C3259      S3264   1.804       .  S
C3260      C3261   1.406       .  A
C3260      H3265   1.084       .  S
C3261      C3262   1.417       .  A
C3262      S3266   1.802       .  S
C3263      C3272   1.400       .  A
S3264      H3280   1.404       .  S
S3266      H3277   1.407       .  S
C3268      C3269   1.399       .  A
C3268      S3273   1.808       .  S
C3269      C3270   1.403       .  A
C3269      H3274   1.083       .  S
C3270      C3271   1.415       .  A
C3271      S3275   1.803       .  S
C3272      H3276   1.084       .  S
S3273      H3278   1.407       .  S
S3275      H3279   1.407       .  S
C3281      C3282   1.400       .  A
C3281      C3286   1.398       .  A
C3281      H3291   1.084       .  S
C3282      C3287   1.474       .  S
C3282      C3283   1.414       .  A
C3283      C3284   1.398       .  A
C3283      S3288   1.808       .  S
C3284      C3285   1.404       .  A
C3284      H3289   1.084       .  S
C3285      C3286   1.415       .  A
C3286      S3290   1.803       .  S
C3287      C3292   1.408       .  A
C3287      C3296   1.398       .  A
S3288      H3304   1.404       .  S
S3290      H3301   1.407       .  S
C3292      C3293   1.400       .  A
C3292      S3297   1.808       .  S
C3293      C3294   1.405       .  A
C3294      C3295   1.418       .  A
C3295      C3296   1.402       .  A
C3295      S3299   1.809       .  S
C3296      H3300   1.083       .  S
S3297      H3302   1.407       .  S
S3299      H3303   1.407       .  S
C3305      C3306   1.402       .  A
C3305      C3310   1.400       .  A
C3305      H3315   1.084       .  S
C3306      C3311   1.475       .  S
C3306      C3307   1.407       .  A
C3307      C3308   1.396       .  A
C3307      S3312   1.805       .  S
C3308      C3309   1.409       .  A
C3308      H3313   1.084       .  S
C3309      C3310   1.417       .  A
C3310      S3314   1.800       .  S
C3311      C3316   1.406       .  A
C3311      C3320   1.401       .  A
S3312      H3328   1.405       .  S
S3314      H3325   1.408       .  S
C3316      C3317   1.400       .  A
C3316      S3321   1.807       .  S
C3317      C3318   1.407       .  A
C3317      H3322   1.082       .  S
C3318      C3319   1.417       .  A
C3319      C3320   1.399       .  A
C3319      S3323   1.802       .  S
C3320      H3324   1.084       .  S
S3321      H3326   1.407       .  S
S3323      H3327   1.408       .  S
C3329      C3330   1.401       .  A
C3329      C3334   1.397       .  A
C3329      H3339   1.084       .  S
C3330      C3335   1.474       .  S
C3330      C3331   1.412       .  A
C3331      C3332   1.398       .  A
C3331      S3336   1.804       .  S
C3332      C3333   1.402       .  A
C3332      H3337   1.084       .  S
C3333      C3334   1.413       .  A
C3334      S3338   1.804       .  S
C3335      C3340   1.411       .  A
S3336      H3352   1.405       .  S
S3338      H3349   1.407       .  S
C3340      S3345   1.806       .  S
C3341      C3342   1.404       .  A
C3342      C3343   1.417       .  A
C3343      C3344   1.394       .  A
C3343      S3347   1.804       .  S
C3344      H3348   1.084       .  S
S3345      H3350   1.407       .  S
S3347      H3351   1.405       .  S
C3353      C3354   1.404       .  A
C3353      C3358   1.400       .  A
C3353      H3363   1.084       .  S
C3354      C3359   1.475       .  S
C3354      C3355   1.408       .  A
C3355      C3356   1.393       .  A
C3355      S3360   1.805       .  S
C3356      C3357   1.406       .  A
C3356      H3361   1.083       .  S
C3357      C3358   1.413       .  A
C3358      S3362   1.801       .  S
C3359      C3364   1.407       .  A
C3359      C3368   1.403       .  A
S3360      H3376   1.406       .  S
S3362      H3373   1.407       .  S
C3364      C3365   1.398       .  A
C3364      S3369   1.808       .  S
C3365      C3366   1.405       .  A
C3365      H3370   1.083       .  S
C3366      C3367   1.412       .  A
C3367      C3368   1.399       .  A
C3367      S3371   1.802       .  S
C3368      H3372   1.084       .  S
S3369      H3374   1.407       .  S
S3371      H3375   1.407       .  S
C3377      C3378   1.401       .  A
C3377      C3382   1.398       .  A
C3377      H3387   1.084       .  S
C3378      C3383   1.481       .  S
C3378      C3379   1.412       .  A
C3379      C3380   1.401       .  A
C3379      S3384   1.803       .  S
C3380      C3381   1.404       .  A
C3381      C3382   1.415       .  A
C3382      S3386   1.804       .  S
C3383      C3388   1.411   1_455  A
C3383      C3392   1.401       .  A
S3384      H3400   1.406       .  S
S3386      H3397   1.407       .  S
C3388      C3389   1.403       .  A
C3388      S3393   1.808       .  S
C3389      C3390   1.402       .  A
C3389      H3394   1.083       .  S
C3390      C3391   1.414       .  A
C3391      C3392   1.403   1_655  A
C3391      S3395   1.808   1_655  S
C3392      H3396   1.083       .  S
S3393      H3398   1.407       .  S
S3395      H3399   1.407       .  S
C3401      C3402   1.404       .  A
C3401      C3406   1.398       .  A
C3401      H3411   1.084       .  S
C3402      C3407   1.476   1_455  S
C3402      C3403   1.410       .  A
C3403      C3404   1.398       .  A
C3403      S3408   1.804   1_455  S
C3404      C3405   1.405       .  A
C3404      H3409   1.084       .  S
C3405      C3406   1.412       .  A
C3406      S3410   1.802       .  S
C3407      C3412   1.409       .  A
C3407      C3416   1.400       .  A
S3408      H3424   1.405       .  S
S3410      H3421   1.403       .  S
C3412      C3413   1.402       .  A
C3412      S3417   1.806   1_655  S
C3413      C3414   1.404       .  A
C3413      H3418   1.083       .  S
C3414      C3415   1.416       .  A
C3415      C3416   1.397       .  A
C3415      S3419   1.804       .  S
C3416      H3420   1.084       .  S
S3417      H3422   1.407   1_455  S
S3419      H3423   1.407       .  S
C3425      C3426   1.400       .  A
C3425      C3430   1.398       .  A
C3425      H3435   1.084       .  S
C3426      C3431   1.479       .  S
C3426      C3427   1.413       .  A
C3427      C3428   1.401       .  A
C3427      S3432   1.805       .  S
C3428      C3429   1.405       .  A
C3428      H3433   1.084       .  S
C3429      C3430   1.417       .  A
C3430      S3434   1.801       .  S
C3431      C3436   1.408       .  A
C3431      C3440   1.400       .  A
S3432      H3448   1.405       .  S
S3434      H3445   1.407       .  S
C3436      C3437   1.404       .  A
C3436      S3441   1.806       .  S
C3437      C3438   1.407       .  A
C3437      H3442   1.083       .  S
C3438      C3439   1.416       .  A
C3439      C3440   1.397       .  A
C3439      S3443   1.802       .  S
C3440      H3444   1.084       .  S
S3441      H3446   1.407       .  S
S3443      H3447   1.408       .  S
C3449      C3450   1.404       .  A
C3449      C3454   1.399       .  A
C3449      H3459   1.084       .  S
C3450      C3455   1.479       .  S
C3450      C3451   1.409       .  A
C3451      C3452   1.397       .  A
C3451      S3456   1.805       .  S
C3452      C3453   1.409       .  A
C3452      H3457   1.084       .  S
C3453      C3454   1.415       .  A
C3454      S3458   1.800       .  S
C3455      C3460   1.408       .  A
C3455      C3464   1.403       .  A
S3456      H3472   1.406       .  S
S3458      H3469   1.407       .  S
C3460      C3461   1.401       .  A
C3460      S3465   1.806       .  S
C3461      H3466   1.083       .  S
C3463      C3464   1.397       .  A
C3464      H3468   1.084       .  S
S3465      H3470   1.407       .  S
S3467      H3471   1.407       .  S
C3473      C3474   1.399       .  A
C3473      C3478   1.396       .  A
C3473      H3483   1.084       .  S
C3474      C3479   1.476       .  S
C3474      C3475   1.413       .  A
C3475      C3476   1.401       .  A
C3475      S3480   1.804       .  S
C3476      C3477   1.403       .  A
C3476      H3481   1.084       .  S
C3477      C3478   1.414       .  A
C3478      S3482   1.804       .  S
C3479      C3484   1.407       .  A
C3479      C3488   1.402       .  A
S3480      H3496   1.406       .  S
S3482      H3493   1.407       .  S
C3484      C3485   1.403       .  A
C3484      S3489   1.806       .  S
C3485      C3486   1.407       .  A
C3485      H3490   1.083       .  S
C3486      C3487   1.412       .  A
C3487      C3488   1.398       .  A
C3487      S3491   1.802       .  S
C3488      H3492   1.084       .  S
S3489      H3494   1.407       .  S
S3491      H3495   1.405       .  S
C3497      C3498   1.406       .  A
C3497      C3502   1.404       .  A
C3497      H3507   1.084       .  S
C3498      C3503   1.481       .  S
C3498      C3499   1.411       .  A
C3499      C3500   1.393       .  A
C3499      S3504   1.805       .  S
C3500      C3501   1.403       .  A
C3500      H3505   1.083       .  S
C3501      C3502   1.412       .  A
C3502      S3506   1.802       .  S
C3503      C3508   1.409       .  A
C3503      C3512   1.404       .  A
S3504      H3520   1.406       .  S
S3506      H3517   1.407       .  S
C3508      C3509   1.401       .  A
C3508      S3513   1.808       .  S
C3509      C3510   1.407       .  A
C3509      H3514   1.083       .  S
C3510      C3511   1.414       .  A
C3511      C3512   1.401       .  A
C3511      S3515   1.801       .  S
C3512      H3516   1.084       .  S
S3513      H3518   1.407       .  S
S3515      H3519   1.407       .  S
C3521      C3522   1.402       .  A
C3521      C3526   1.397       .  A
C3521      H3531   1.084       .  S
C3522      C3527   1.476       .  S
C3522      C3523   1.408       .  A
C3523      C3524   1.399       .  A
C3523      S3528   1.805       .  S
C3524      C3525   1.411       .  A
C3524      H3529   1.083       .  S
C3525      C3526   1.416       .  A
C3526      S3530   1.800       .  S
C3527      C3532   1.407       .  A
C3527      C3536   1.404       .  A
S3528      H3544   1.406       .  S
S3530      H3541   1.408       .  S
C3532      C3533   1.396       .  A
C3532      S3537   1.808       .  S
C3533      C3534   1.404       .  A
C3533      H3538   1.083       .  S
C3534      C3535   1.413       .  A
C3535      C3536   1.401       .  A
C3535      S3539   1.802       .  S
C3536      H3540   1.084       .  S
S3537      H3542   1.407       .  S
S3539      H3543   1.407       .  S
C3545      C3546   1.401       .  A
C3545      C3550   1.399       .  A
C3545      H3555   1.084       .  S
C3546      C3551   1.479       .  S
C3546      C3547   1.412       .  A
C3547      C3548   1.399       .  A
C3547      S3552   1.805       .  S
C3548      C3549   1.404       .  A
C3548      H3553   1.084       .  S
C3549      C3550   1.416       .  A
C3550      S3554   1.803       .  S
C3551      C3556   1.408       .  A
C3551      C3560   1.404       .  A
S3552      H3568   1.406       .  S
S3554      H3565   1.407       .  S
C3556      C3557   1.401       .  A
C3556      S3561   1.807       .  S
C3557      C3558   1.405       .  A
C3557      H3562   1.083       .  S
C3558      C3559   1.411       .  A
C3559      C3560   1.400       .  A
C3559      S3563   1.802       .  S
C3560      H3564   1.084       .  S
S3561      H3566   1.407       .  S
S3563      H3567   1.407       .  S
C3569      C3570   1.402       .  A
C3569      C3574   1.400       .  A
C3569      H3579   1.084       .  S
C3570      C3575   1.478       .  S
C3570      C3571   1.409       .  A
C3571      C3572   1.398       .  A
C3571      S3576   1.804       .  S
C3572      C3573   1.408       .  A
C3572      H3577   1.083       .  S
C3573      C3574   1.417       .  A
C3574      S3578   1.801       .  S
C3575      C3580   1.407       .  A
C3575      C3584   1.400       .  A
S3576      H3592   1.406       .  S
S3578      H3589   1.408       .  S
C3580      C3581   1.400       .  A
C3580      S3585   1.807       .  S
C3581      C3582   1.407       .  A
C3581      H3586   1.082       .  S
C3582      C3583   1.421       .  A
C3583      C3584   1.403       .  A
S3585      H3590   1.407       .  S
C3593      C3594   1.402       .  A
C3593      C3598   1.402       .  A
C3593      H3603   1.084       .  S
C3594      C3599   1.471       .  S
C3594      C3595   1.407       .  A
C3595      C3596   1.395       .  A
C3595      S3600   1.805       .  S
C3596      C3597   1.407       .  A
C3596      H3601   1.084       .  S
C3597      C3598   1.414       .  A
C3598      S3602   1.808       .  S
C3599      C3604   1.407       .  A
C3599      C3608   1.400       .  A
S3600      H3616   1.403       .  S
S3602      H3613   1.407       .  S
C3604      C3605   1.401       .  A
C3604      S3609   1.807       .  S
C3605      C3606   1.403       .  A
C3605      H3610   1.083       .  S
C3606      C3607   1.412       .  A
C3607      C3608   1.397       .  A
C3607      S3611   1.805       .  S
C3608      H3612   1.084       .  S
S3609      H3614   1.406       .  S
S3611      H3615   1.407       .  S
C3617      C3618   1.398       .  A
C3617      H3627   1.084       .  S
C3618      C3623   1.475       .  S
C3618      C3619   1.413       .  A
C3619      C3620   1.400       .  A
C3619      S3624   1.805       .  S
C3620      H3625   1.084       .  S
C3621      C3622   1.419       .  A
C3622      S3626   1.803       .  S
C3623      C3628   1.409       .  A
C3623      C3632   1.400       .  A
S3624      H3640   1.405   1_554  S
S3626      H3637   1.408       .  S
C3628      C3629   1.404   1_554  A
C3628      S3633   1.805       .  S
C3629      C3630   1.403       .  A
C3629      H3634   1.083       .  S
C3630      C3631   1.411   1_556  A
C3631      C3632   1.395       .  A
C3631      S3635   1.805       .  S
C3632      H3636   1.084       .  S
S3633      H3638   1.407   1_554  S
S3635      H3639   1.407       .  S
C3641      C3642   1.402       .  A
C3641      C3646   1.400       .  A
C3641      H3651   1.084       .  S
C3642      C3647   1.477       .  S
C3642      C3643   1.409       .  A
C3643      C3644   1.397       .  A
C3643      S3648   1.804       .  S
C3644      C3645   1.406       .  A
C3644      H3649   1.084       .  S
C3645      C3646   1.415       .  A
C3646      S3650   1.802       .  S
C3647      C3652   1.406       .  A
C3647      C3656   1.402       .  A
S3648      H3664   1.406       .  S
S3650      H3661   1.407       .  S
C3652      C3653   1.402   1_455  A
C3652      S3657   1.806       .  S
C3653      C3654   1.408       .  A
C3653      H3658   1.083       .  S
C3654      C3655   1.412       .  A
C3655      C3656   1.397   1_655  A
C3655      S3659   1.802       .  S
C3656      H3660   1.084       .  S
S3657      H3662   1.407       .  S
S3659      H3663   1.407       .  S
C3665      C3666   1.399       .  A
C3665      C3670   1.403       .  A
C3665      H3675   1.083   1_455  S
C3666      C3671   1.473   1_455  S
C3666      C3667   1.412       .  A
C3667      C3668   1.395       .  A
C3667      S3672   1.806       .  S
C3668      C3669   1.403       .  A
C3668      H3673   1.084       .  S
C3669      C3670   1.417       .  A
C3670      S3674   1.809       .  S
C3671      C3676   1.407       .  A
C3671      C3680   1.402       .  A
S3672      H3688   1.405       .  S
S3674      H3685   1.407       .  S
C3676      C3677   1.398       .  A
C3676      S3681   1.806       .  S
C3677      C3678   1.404       .  A
C3677      H3682   1.083       .  S
C3678      C3679   1.412       .  A
C3679      C3680   1.397       .  A
C3679      S3683   1.802       .  S
C3680      H3684   1.084       .  S
S3681      H3686   1.407       .  S
S3683      H3687   1.406       .  S
C3689      C3690   1.403       .  A
C3689      C3694   1.402       .  A
C3689      H3699   1.083       .  S
C3690      C3695   1.480       .  S
C3690      C3691   1.412       .  A
C3691      C3692   1.395       .  A
C3691      S3696   1.806       .  S
C3692      C3693   1.404       .  A
C3693      C3694   1.415       .  A
C3694      S3698   1.801       .  S
C3695      C3700   1.406       .  A
C3695      C3704   1.401       .  A
S3696      H3712   1.406       .  S
S3698      H3709   1.407       .  S
C3700      C3701   1.402       .  A
C3700      S3705   1.807       .  S
C3701      C3702   1.409       .  A
C3701      H3706   1.082       .  S
C3702      C3703   1.420       .  A
C3703      C3704   1.402       .  A
C3703      S3707   1.810       .  S
C3704      H3708   1.083       .  S
S3705      H3710   1.407       .  S
S3707      H3711   1.407       .  S
C3713      C3714   1.402       .  A
C3713      C3718   1.402       .  A
C3713      H3723   1.084       .  S
C3714      C3719   1.475       .  S
C3714      C3715   1.408       .  A
C3715      C3716   1.395       .  A
C3715      S3720   1.805       .  S
C3716      C3717   1.408       .  A
C3716      H3721   1.084       .  S
C3717      C3718   1.416       .  A
C3718      S3722   1.801       .  S
C3719      C3724   1.409       .  A
C3719      C3728   1.399       .  A
S3720      H3736   1.405       .  S
S3722      H3733   1.407       .  S
C3724      C3725   1.403       .  A
C3724      S3729   1.807       .  S
C3725      C3726   1.405       .  A
C3725      H3730   1.083       .  S
C3726      C3727   1.415       .  A
C3727      C3728   1.397       .  A
C3727      S3731   1.803       .  S
C3728      H3732   1.084       .  S
S3729      H3734   1.407       .  S
S3731      H3735   1.408       .  S
C3737      C3738   1.402       .  A
C3737      C3742   1.397       .  A
C3737      H3747   1.084       .  S
C3738      C3743   1.476       .  S
C3738      C3739   1.410       .  A
C3739      C3740   1.395       .  A
C3739      S3744   1.804       .  S
C3740      C3741   1.404       .  A
C3740      H3745   1.084       .  S
C3741      C3742   1.413       .  A
C3742      S3746   1.801       .  S
C3743      C3748   1.405       .  A
C3743      C3752   1.403       .  A
S3744      H3760   1.407       .  S
S3746      H3757   1.405       .  S
C3748      C3749   1.399       .  A
C3748      S3753   1.807       .  S
C3749      C3750   1.409       .  A
C3749      H3754   1.082       .  S
C3750      C3751   1.414       .  A
C3751      C3752   1.397       .  A
C3751      S3755   1.802       .  S
C3752      H3756   1.084       .  S
S3753      H3758   1.407       .  S
S3755      H3759   1.408       .  S
C3761      C3762   1.400       .  A
C3761      C3766   1.397       .  A
C3761      H3771   1.084       .  S
C3762      C3767   1.473       .  S
C3762      C3763   1.411       .  A
C3763      C3764   1.399       .  A
C3763      S3768   1.804       .  S
C3764      C3765   1.402       .  A
C3765      C3766   1.414       .  A
C3766      S3770   1.805       .  S
C3767      C3772   1.406       .  A
C3767      C3776   1.401       .  A
S3768      H3784   1.405       .  S
S3770      H3781   1.407       .  S
C3772      C3773   1.401       .  A
C3772      S3777   1.807       .  S
C3773      C3774   1.407       .  A
C3773      H3778   1.083       .  S
C3774      C3775   1.413       .  A
C3775      C3776   1.397       .  A
C3775      S3779   1.802       .  S
C3776      H3780   1.084       .  S
S3777      H3782   1.407       .  S
S3779      H3783   1.407       .  S
C3785      C3786   1.401       .  A
C3785      C3790   1.399       .  A
C3785      H3795   1.084       .  S
C3786      C3791   1.477       .  S
C3786      C3787   1.408       .  A
C3787      C3788   1.397       .  A
C3787      S3792   1.804       .  S
C3788      C3789   1.409       .  A
C3788      H3793   1.083       .  S
C3789      C3790   1.418       .  A
C3790      S3794   1.802       .  S
C3791      C3796   1.410       .  A
C3791      C3800   1.399       .  A
S3792      H3808   1.406       .  S
S3794      H3805   1.408       .  S
C3796      C3797   1.402       .  A
C3796      S3801   1.807       .  S
C3797      C3798   1.404       .  A
C3797      H3802   1.083       .  S
C3798      C3799   1.416       .  A
C3799      C3800   1.398       .  A
C3799      S3803   1.803       .  S
C3800      H3804   1.084       .  S
S3801      H3806   1.407       .  S
S3803      H3807   1.407       .  S
C3809      H3819   1.083       .  S
C3810      C3811   1.409       .  A
C3811      C3812   1.393       .  A
C3811      S3816   1.805       .  S
C3812      C3813   1.405       .  A
C3812      H3817   1.084       .  S
C3813      C3814   1.414       .  A
C3814      S3818   1.808       .  S
C3815      C3820   1.406       .  A
C3815      C3824   1.403       .  A
S3816      H3832   1.406       .  S
S3818      H3829   1.407       .  S
C3820      C3821   1.398       .  A
C3821      C3822   1.407       .  A
C3821      H3826   1.083       .  S
C3822      C3823   1.413       .  A
C3823      C3824   1.399       .  A
C3823      S3827   1.801       .  S
C3824      H3828   1.084       .  S
S3825      H3830   1.407       .  S
S3827      H3831   1.407       .  S
C3833      C3834   1.403       .  A
C3833      C3838   1.399       .  A
C3833      H3843   1.084       .  S
C3834      C3839   1.477       .  S
C3834      C3835   1.409       .  A
C3835      C3836   1.395       .  A
C3835      S3840   1.805       .  S
C3836      C3837   1.407       .  A
C3836      H3841   1.084       .  S
C3837      C3838   1.416       .  A
C3838      S3842   1.801       .  S
C3839      C3844   1.407       .  A
C3839      C3848   1.403       .  A
S3840      H3856   1.406       .  S
S3842      H3853   1.408       .  S
C3844      C3845   1.399       .  A
C3844      S3849   1.808       .  S
C3845      C3846   1.407       .  A
C3845      H3850   1.083       .  S
C3846      C3847   1.412       .  A
C3847      C3848   1.399       .  A
C3847      S3851   1.798       .  S
C3848      H3852   1.084       .  S
S3849      H3854   1.407       .  S
S3851      H3855   1.407       .  S
C3857      C3858   1.399       .  A
C3857      H3867   1.084       .  S
C3858      C3863   1.477   1_554  S
C3859      C3860   1.399       .  A
C3859      S3864   1.805       .  S
C3860      C3861   1.409       .  A
C3860      H3865   1.083       .  S
C3861      C3862   1.417       .  A
C3862      S3866   1.802       .  S
C3863      C3868   1.407       .  A
C3863      C3872   1.401       .  A
S3866      H3877   1.407       .  S
C3868      C3869   1.399       .  A
C3868      S3873   1.808       .  S
C3869      C3870   1.406       .  A
C3869      H3874   1.083       .  S
C3870      C3871   1.415       .  A
C3871      C3872   1.405       .  A
C3871      S3875   1.807       .  S
C3872      H3876   1.083       .  S
S3873      H3878   1.407       .  S
S3875      H3879   1.407       .  S
C3881      C3882   1.402       .  A
C3881      C3886   1.396       .  A
C3881      H3891   1.084       .  S
C3882      C3887   1.480       .  S
C3882      C3883   1.413       .  A
C3883      C3884   1.400       .  A
C3883      S3888   1.806       .  S
C3884      C3885   1.405       .  A
C3884      H3889   1.084       .  S
C3885      C3886   1.415       .  A
C3886      S3890   1.803       .  S
C3887      C3892   1.410       .  A
C3887      C3896   1.400       .  A
S3888      H3904   1.405       .  S
S3890      H3901   1.407       .  S
C3892      C3893   1.403       .  A
C3892      S3897   1.807       .  S
C3893      C3894   1.406       .  A
C3893      H3898   1.082       .  S
C3894      C3895   1.418       .  A
C3895      C3896   1.396       .  A
C3895      S3899   1.803       .  S
C3896      H3900   1.084       .  S
S3897      H3902   1.407       .  S
S3899      H3903   1.408       .  S
