geometry optimzed in LAMMPS
_audit_creation_date              2020-12-01 
_audit_creation_method            'lammps2cif' 
_symmetry_space_group_name_H-M    'P1' 
_symmetry_Int_Tables_number       1 
_symmetry_cell_setting            triclinic 
loop_ 
_symmetry_equiv_pos_as_xyz 
  x,y,z 
_cell_length_a                    69.03121646 
_cell_length_b                    69.07716712124682 
_cell_length_c                    43.56922371059297 
_cell_angle_alpha                 90.17050854866673 
_cell_angle_beta                  89.84357084815086 
_cell_angle_gamma                 120.18867030933606 
loop_ 
_atom_site_label 
_atom_site_type_symbol 
_atom_site_fract_x 
_atom_site_fract_y 
_atom_site_fract_z 
_atom_site_charge 
O1          O  0.40585077  0.55135607  0.01451173    -0.56800
C2          C  0.44714981  0.58285106  0.09198840     0.75800
O3          O  0.39781718  0.51411168  0.10591533    -0.58000
C4          C  0.38715692  0.53332017  0.01251021     0.75800
C5          C  0.44684390  0.52432913  0.04091805     0.78100
Cd6        Cd  0.41764590  0.54051965  0.06264644     1.37500
O7          O  0.43531821  0.58166946  0.06902444    -0.56800
O8          O  0.45072196  0.54395117  0.03561892    -0.55700
C9          C  0.38704457  0.52379441  0.11368460     0.78100
O10         O  0.42909316  0.51169940  0.05580773    -0.58000
O11         O  0.44587193  0.56467766  0.10008245    -0.56500
O12         O  0.38298832  0.51887749  0.03307022    -0.56500
O13         O  0.39075004  0.54069087  0.09801266    -0.55600
O14         O  0.56929787  0.42387518  0.94274191    -0.56800
C15         C  0.61622693  0.47198101  0.00401175     0.75800
O16         O  0.61182804  0.49440081  0.91034608    -0.58000
C17         C  0.56243228  0.42417745  0.91586360     0.75800
C18         C  0.55755519  0.47760272  0.96849542     0.78100
Cd19       Cd  0.59007829  0.46530117  0.94931816     1.37500
O20         O  0.60658456  0.45323062  0.99031063    -0.56800
O21         O  0.55666258  0.45970373  0.97720730    -0.55700
C22         C  0.62584805  0.48795111  0.90567861     0.78100
O23         O  0.57357541  0.48990872  0.95058828    -0.58000
O24         O  0.61311441  0.48712785  0.99302111    -0.56500
O25         O  0.56820999  0.44329867  0.90505504    -0.56500
O26         O  0.62358656  0.47177510  0.92183304    -0.55600
O27         O  0.90106028  0.81010182  0.08871147    -0.56800
C28         C  0.94645113  0.80654491  0.15084875     0.75800
O29         O  0.90862506  0.74709746  0.09984351    -0.58000
C30         C  0.88868966  0.79834451  0.06666655     0.75800
C31         C  0.95132051  0.80263593  0.04754401     0.78100
Cd32       Cd  0.91911696  0.78706448  0.09653042     1.37500
O33         O  0.92797061  0.80610892  0.14782349    -0.56800
O34         O  0.94725873  0.81550959  0.06353256    -0.55700
C35         C  0.89080240  0.74127180  0.11492979     0.78100
O36         O  0.94020681  0.78194109  0.05406375    -0.58000
O37         O  0.95213494  0.79836530  0.12902503    -0.56500
O38         O  0.89006851  0.78129553  0.05969984    -0.56500
O39         O  0.88635307  0.75647887  0.12132328    -0.55600
O40         O  0.77653433  0.52792688  0.23992294    -0.56800
C41         C  0.72675050  0.52520372  0.17935175     0.75800
O42         O  0.73233738  0.55239994  0.27393524    -0.58000
C43         C  0.78392699  0.53678280  0.26602329     0.75800
C44         C  0.78444379  0.58981190  0.20742486     0.78100
Cd45       Cd  0.75404890  0.54629254  0.23270139     1.37500
O46         O  0.73748820  0.51682359  0.19176721    -0.56800
O47         O  0.78709128  0.57309404  0.20398893    -0.55700
C48         C  0.71907108  0.53158959  0.27807971     0.78100
O49         O  0.76785667  0.58664797  0.22379953    -0.58000
O50         O  0.72905788  0.54289465  0.19146600    -0.56500
O51         O  0.77792961  0.55022679  0.27585583    -0.56500
O52         O  0.72241532  0.51839895  0.26172468    -0.55600
O53         O  0.23608684  0.75886314  0.26377773    -0.56800
C54         C  0.28053239  0.80998207  0.32131326     0.75800
O55         O  0.27564234  0.82942006  0.22761295    -0.58000
C56         C  0.22604814  0.75672849  0.23860274     0.75800
C57         C  0.21909333  0.81114948  0.28704839     0.78100
Cd58       Cd  0.25267323  0.80027214  0.26721986     1.37500
O59         O  0.26685569  0.79010040  0.31287628    -0.56800
O60         O  0.22180073  0.79616180  0.29946831    -0.55700
C61         C  0.28850966  0.82154131  0.22281335     0.78100
O62         O  0.23181278  0.82129163  0.26447200    -0.58000
O63         O  0.28068172  0.82527363  0.30518796    -0.56500
O64         O  0.22831715  0.77455352  0.22709508    -0.56500
O65         O  0.28453426  0.80457660  0.23849714    -0.55600
O66         O  0.09875708  0.91144223  0.39176909    -0.56800
C67         C  0.04918340  0.85893924  0.33644499     0.75800
O68         O  0.09329563  0.84382907  0.38912922    -0.58000
C69         C  0.10898824  0.91256803  0.41646402     0.75800
C70         C  0.04447293  0.84987393  0.43737147     0.78100
Cd71       Cd  0.07799460  0.86955107  0.38971689     1.37500
O72         O  0.05988798  0.87880022  0.34681880    -0.56800
O73         O  0.04711403  0.86617258  0.42113688    -0.55700
C74         C  0.10845762  0.85479488  0.36942687     0.78100
O75         O  0.05795332  0.84279986  0.43243157    -0.58000
O76         O  0.05194975  0.84457325  0.35060770    -0.56500
O77         O  0.10482576  0.89410044  0.42802969    -0.56500
O78         O  0.10945589  0.87243290  0.35929376    -0.55600
O79         O  0.60477472  0.15305057  0.48259438    -0.56800
C80         C  0.55729682  0.13838073  0.41351783     0.75800
O81         O  0.60736146  0.12016789  0.39523747    -0.58000
C82         C  0.61488745  0.14387695  0.49454958     0.75800
C83         C  0.55623825  0.07979035  0.46147472     0.78100
Cd84       Cd  0.58716672  0.12513333  0.44031144     1.37500
O85         O  0.56737982  0.14690406  0.43853994    -0.56800
O86         O  0.55534196  0.09673424  0.47060572    -0.55700
C87         C  0.62197292  0.14080253  0.39320067     0.78100
O88         O  0.57147398  0.08366762  0.44197430    -0.58000
O89         O  0.56069912  0.12362169  0.40164177    -0.56500
O90         O  0.61140792  0.12587593  0.48195534    -0.56500
O91         O  0.62036837  0.15354687  0.41261141    -0.55600
O92         O  0.40154556  0.85180669  0.50971513    -0.56800
C93         C  0.44560532  0.86461017  0.58252014     0.75800
O94         O  0.43244394  0.91813294  0.55955372    -0.58000
C95         C  0.38496772  0.85446636  0.50459221     0.75800
C96         C  0.38306005  0.86273554  0.60640204     0.78100
Cd97       Cd  0.41473802  0.87652201  0.55626422     1.37500
O98         O  0.43305121  0.85353732  0.56026800    -0.56800
O99         O  0.39084651  0.85081241  0.59642946    -0.55700
C100        C  0.44535814  0.92233386  0.53670929     0.78100
O101        O  0.39006799  0.88152671  0.59345325    -0.58000
O102        O  0.44404442  0.88113407  0.59182269    -0.56500
O103        O  0.38241558  0.86717634  0.52304809    -0.56500
O104        O  0.44367341  0.90543774  0.52285492    -0.55600
O105        O  0.89837561  0.09253943  0.60094122    -0.56800
C106        C  0.94476379  0.13763074  0.66058857     0.75800
O107        O  0.94487460  0.16140408  0.56526428    -0.58000
C108        C  0.89145489  0.09208536  0.57392998     0.75800
C109        C  0.89098300  0.15121184  0.62276244     0.78100
Cd110      Cd  0.92016403  0.13396940  0.60537577     1.37500
O111        O  0.92802842  0.11905716  0.65277181    -0.56800
O112        O  0.89137905  0.13540701  0.63670251    -0.55700
C113        C  0.95756695  0.15311679  0.56264938     0.78100
O114        O  0.90474000  0.15977670  0.60074905    -0.58000
O115        O  0.94938007  0.15428887  0.64366942    -0.56500
O116        O  0.89731344  0.11093414  0.56213268    -0.56500
O117        O  0.95307461  0.13684583  0.58021605    -0.55600
O118        O  0.73815128  0.22376570  0.68040092    -0.56800
C119        C  0.78159168  0.25368220  0.75802569     0.75800
O120        O  0.73040828  0.18378213  0.76507858    -0.58000
C121        C  0.72317342  0.20382862  0.67399505     0.75800
C122        C  0.78319167  0.19921427  0.70263899     0.78100
Cd123      Cd  0.75259297  0.21265268  0.72569792     1.37500
O124        O  0.77119303  0.25378339  0.73409511    -0.56800
O125        O  0.78222137  0.21566599  0.69174242    -0.55700
C126        C  0.71903103  0.19286344  0.77265160     0.78100
O127        O  0.76992274  0.18877005  0.72458013    -0.58000
O128        O  0.77901161  0.23492788  0.76591223    -0.56500
O129        O  0.72258518  0.18862809  0.69079403    -0.56500
O130        O  0.72317609  0.21043556  0.75833745    -0.55600
O131        O  0.26431348  0.48265582  0.82611372    -0.56800
C132        C  0.22148660  0.46935690  0.74977485     0.75800
O133        O  0.27266805  0.45121462  0.74052094    -0.58000
C134        C  0.27716034  0.47584998  0.83589909     0.75800
C135        C  0.21911230  0.41151003  0.80218353     0.78100
Cd136      Cd  0.25028578  0.45660516  0.78145941     1.37500
O137        O  0.23028838  0.47801332  0.77541360    -0.56800
O138        O  0.21977308  0.42858450  0.81398650    -0.55700
C139        C  0.28685198  0.47193079  0.73785674     0.78100
O140        O  0.23300497  0.41521587  0.78072231    -0.58000
O141        O  0.22578650  0.45478492  0.73952546    -0.56500
O142        O  0.27713643  0.46014600  0.82081818    -0.56500
O143        O  0.28381481  0.48499434  0.75495767    -0.55600
O144        O  0.10364935  0.18424450  0.89414260    -0.56800
C145        C  0.05144328  0.18551518  0.84010960     0.75800
O146        O  0.06237168  0.21200192  0.93253715    -0.58000
C147        C  0.11464338  0.19476660  0.91781740     0.75800
C148        C  0.11202610  0.25160928  0.87048704     0.78100
Cd149      Cd  0.08317076  0.20586444  0.89036666     1.37500
O150        O  0.06766313  0.18191473  0.84313104    -0.56800
O151        O  0.11121825  0.23512818  0.85651110    -0.55700
C152        C  0.05168547  0.19163197  0.94073019     0.78100
O153        O  0.09903764  0.24685457  0.89334662    -0.58000
O154        O  0.05034400  0.19824102  0.86006458    -0.56500
O155        O  0.11171030  0.21048168  0.92693938    -0.56500
O156        O  0.05572996  0.17837216  0.92563310    -0.55600
O157        O  0.91231271  0.80377729  0.60736562    -0.56800
C158        C  0.86210503  0.80629300  0.66224697     0.75800
O159        O  0.84572761  0.78390400  0.56661242    -0.58000
C160        C  0.91276350  0.79669440  0.58060807     0.75800
C161        C  0.85184136  0.73994273  0.62610123     0.78100
Cd162      Cd  0.87066303  0.78640121  0.60920808     1.37500
O163        O  0.88195701  0.81331208  0.65285272    -0.56800
O164        O  0.86994807  0.75536924  0.63746634    -0.55700
C165        C  0.85438165  0.80496834  0.56444337     0.78100
O166        O  0.84211622  0.74599939  0.60698544    -0.58000
O167        O  0.84672744  0.78978174  0.64791765    -0.56500
O168        O  0.89396039  0.78485077  0.56778462    -0.56500
O169        O  0.87032762  0.81684114  0.58249833    -0.55600
O170        O  0.74315737  0.51575006  0.72093335    -0.56800
C171        C  0.79378353  0.51344441  0.66562075     0.75800
O172        O  0.80924126  0.57691347  0.71303354    -0.58000
C173        C  0.74390454  0.52694281  0.74453498     0.75800
C174        C  0.80379197  0.52350931  0.76370283     0.78100
Cd175      Cd  0.78472783  0.53608679  0.71422939     1.37500
O176        O  0.77395778  0.50951246  0.67021066    -0.56800
O177        O  0.78607049  0.50963913  0.74981030    -0.55700
C178        C  0.79917765  0.58033572  0.69129685     0.78100
O179        O  0.81286393  0.54366963  0.75468174    -0.58000
O180        O  0.80894824  0.52799959  0.68263887    -0.56500
O181        O  0.76313911  0.54198523  0.75310302    -0.56500
O182        O  0.78311956  0.56313190  0.67902261    -0.55600
O183        O  0.19014963  0.12467360  0.15805825    -0.56800
C184        C  0.20042345  0.08804358  0.09227982     0.75800
O185        O  0.22025976  0.15941740  0.06824704    -0.58000
C186        C  0.19863459  0.14473038  0.16724769     0.75800
C187        C  0.26058882  0.14932760  0.12820230     0.78100
Cd188      Cd  0.21444799  0.13334049  0.11184854     1.37500
O189        O  0.18943243  0.09173861  0.11245866    -0.56800
O190        O  0.24422883  0.13434957  0.14325554    -0.55700
C191        C  0.19971561  0.15027769  0.06126522     0.78100
O192        O  0.25575933  0.15690205  0.10477782    -0.58000
O193        O  0.21754695  0.10509960  0.08168282    -0.56500
O194        O  0.21429740  0.15922657  0.15075285    -0.56500
O195        O  0.18639787  0.13410249  0.07806125    -0.55600
O196        O  0.48449993  0.25247692  0.23369860    -0.56800
C197        C  0.48045246  0.20237571  0.17508713     0.75800
O198        O  0.45611585  0.18565381  0.27299202    -0.58000
C199        C  0.47472019  0.25358633  0.25775020     0.75800
C200        C  0.41663371  0.19669800  0.20667770     0.78100
Cd201      Cd  0.46144549  0.21095739  0.22877317     1.37500
O202        O  0.48730097  0.22222369  0.18433176    -0.56800
O203        O  0.43389689  0.21389861  0.19662160    -0.55700
C204        C  0.47658614  0.19099685  0.27402771     0.78100
O205        O  0.41998863  0.18572168  0.22720915    -0.58000
O206        O  0.46460938  0.18687625  0.19026657    -0.56500
O207        O  0.45904616  0.23518334  0.26787401    -0.56500
O208        O  0.48945066  0.20522773  0.25458087    -0.55600
O209        O  0.85842830  0.41810775  0.42748678    -0.56800
C210        C  0.85758427  0.46360493  0.49467181     0.75800
O211        O  0.92011932  0.48611956  0.44200296    -0.58000
C212        C  0.86892820  0.41994211  0.40269177     0.75800
C213        C  0.86485608  0.48104448  0.39820587     0.78100
Cd214      Cd  0.87926822  0.45895056  0.44017509     1.37500
O215        O  0.85419069  0.44444256  0.48671195    -0.56800
O216        O  0.85177238  0.46162927  0.40855344    -0.55700
C217        C  0.92466304  0.47522169  0.46117065     0.78100
O218        O  0.88508030  0.49049134  0.40703540    -0.58000
O219        O  0.87058077  0.47971974  0.47760260    -0.56500
O220        O  0.88438631  0.43949479  0.39592717    -0.56500
O221        O  0.90831804  0.45684672  0.47029039    -0.55600
O222        O  0.14359123  0.58341143  0.56493933    -0.56800
C223        C  0.14774146  0.53444594  0.50783591     0.75800
O224        O  0.12268590  0.51337826  0.59875175    -0.58000
C225        C  0.13667133  0.58273017  0.59215867     0.75800
C226        C  0.08192553  0.52715266  0.53962573     0.78100
Cd227      Cd  0.12714820  0.54215640  0.56066008     1.37500
O228        O  0.15546893  0.55417148  0.51823298    -0.56800
O229        O  0.09893710  0.54414669  0.52862639    -0.55700
C230        C  0.14349099  0.52262763  0.60460258     0.78100
O231        O  0.08572517  0.51679569  0.56062127    -0.58000
O232        O  0.13083757  0.51912805  0.52158659    -0.56500
O233        O  0.12562178  0.56358310  0.60431602    -0.56500
O234        O  0.15611781  0.54079505  0.59073663    -0.55600
O235        O  0.13125260  0.19198810  0.36396192    -0.56800
C236        C  0.09870221  0.20715876  0.43487606     0.75800
O237        O  0.16661614  0.22257054  0.45227509    -0.58000
C238        C  0.15122932  0.19797061  0.35622749     0.75800
C239        C  0.15673451  0.26306589  0.38439981     0.78100
Cd240      Cd  0.14144779  0.21835803  0.40793867     1.37500
O241        O  0.09981798  0.19649753  0.41180879    -0.56800
O242        O  0.14030132  0.24568390  0.37306930    -0.55700
C243        C  0.15677216  0.20170856  0.45790761     0.78100
O244        O  0.16649050  0.25995606  0.40693603    -0.58000
O245        O  0.11710745  0.22347162  0.44393007    -0.56500
O246        O  0.16644863  0.21342216  0.37227216    -0.56500
O247        O  0.14057591  0.18935357  0.44048404    -0.55600
O248        O  0.24868740  0.48250393  0.26927454    -0.56800
C249        C  0.20108950  0.48096502  0.32765096     0.75800
O250        O  0.17744950  0.45067268  0.23510216    -0.58000
C251        C  0.24969893  0.47385722  0.24408624     0.75800
C252        C  0.19598401  0.41564307  0.29784187     0.78100
Cd253      Cd  0.20745489  0.45970386  0.27439005     1.37500
O254        O  0.22006296  0.48934251  0.31469303    -0.56800
O255        O  0.21173594  0.43370412  0.30877319    -0.55700
C256        C  0.18402260  0.47104070  0.22932632     0.78100
O257        O  0.18516884  0.41784100  0.27594627    -0.58000
O258        O  0.18542187  0.46312972  0.31606226    -0.56500
O259        O  0.23131838  0.45856021  0.23331879    -0.56500
O260        O  0.20107843  0.48544197  0.24379031    -0.55600
O261        O  0.45654961  0.85703624  0.01999069    -0.56800
C262        C  0.42844083  0.87425357  0.09474770     0.75800
O263        O  0.49579075  0.88442613  0.10506786    -0.58000
C264        C  0.47615641  0.86213601  0.01154947     0.75800
C265        C  0.48555467  0.92872678  0.04539777     0.78100
Cd266      Cd  0.46934610  0.88295143  0.06477604     1.37500
O267        O  0.42801623  0.86365689  0.07066433    -0.56800
O268        O  0.46830327  0.91208646  0.03415572    -0.55700
C269        C  0.48496433  0.86348536  0.11019878     0.78100
O270        O  0.49620199  0.92429616  0.06525562    -0.58000
O271        O  0.44766111  0.88896198  0.10399733    -0.56500
O272        O  0.49216102  0.87736572  0.02684275    -0.56500
O273        O  0.46718707  0.85223118  0.09490680    -0.55600
O274        O  0.55679446  0.15319384  0.99205258    -0.56800
C275        C  0.58505474  0.14111916  0.91236344     0.75800
O276        O  0.51964228  0.08741966  0.94391038    -0.58000
C277        C  0.53755799  0.15047502  0.99790307     0.75800
C278        C  0.52651579  0.14738316  0.90071794     0.78100
Cd279      Cd  0.54417350  0.12922759  0.94522357     1.37500
O280        O  0.58560043  0.14948746  0.93852939    -0.56800
O281        O  0.54377737  0.15923653  0.91676805    -0.55700
C282        C  0.52868355  0.08401210  0.96703169     0.78100
O283        O  0.51663783  0.12639634  0.90556693    -0.58000
O284        O  0.56589248  0.12678253  0.90249967    -0.56500
O285        O  0.52174859  0.13760092  0.98018223    -0.56500
O286        O  0.54433393  0.10126563  0.97972390    -0.55600
O287        O  0.80607243  0.91318325  0.89339881    -0.56800
C288        C  0.80943185  0.86491955  0.83663576     0.75800
O289        O  0.78487435  0.84410918  0.92826395    -0.58000
C290        C  0.80012224  0.91300234  0.92101554     0.75800
C291        C  0.74248854  0.85541759  0.86825817     0.78100
Cd292      Cd  0.78811848  0.87170201  0.88877435     1.37500
O293        O  0.81311126  0.88440595  0.84315997    -0.56800
O294        O  0.75934748  0.87013095  0.85374684    -0.55700
C295        C  0.80588593  0.85303272  0.93230113     0.78100
O296        O  0.74655741  0.84778514  0.89230590    -0.58000
O297        O  0.79560794  0.84898710  0.85340825    -0.56500
O298        O  0.78849341  0.89383390  0.93283960    -0.56500
O299        O  0.81796874  0.86999407  0.91587051    -0.55600
O300        O  0.52097812  0.75510615  0.76934680    -0.56800
C301        C  0.52373759  0.80686311  0.82617236     0.75800
O302        O  0.58269299  0.82076883  0.77290803    -0.58000
C303        C  0.52834868  0.75455130  0.74283844     0.75800
C304        C  0.52798013  0.81763126  0.72612205     0.78100
Cd305      Cd  0.54147434  0.79674758  0.77212491     1.37500
O306        O  0.51346108  0.78757071  0.81392060    -0.56800
O307        O  0.51426619  0.80227052  0.74369586    -0.55700
C308        C  0.58593951  0.80933064  0.79282954     0.78100
O309        O  0.54851994  0.82377130  0.72965157    -0.58000
O310        O  0.54211014  0.82077734  0.81371829    -0.56500
O311        O  0.54161099  0.77321503  0.73065491    -0.56500
O312        O  0.56860736  0.79208548  0.80266390    -0.55600
O313        O  0.14760271  0.56261993  0.05983443    -0.56800
C314        C  0.14960898  0.61214969  0.99902611     0.75800
O315        O  0.09007362  0.57511870  0.04978680    -0.58000
C316        C  0.13872634  0.55482497  0.08580373     0.75800
C317        C  0.14779248  0.62252120  0.09813880     0.78100
Cd318      Cd  0.13035804  0.58653024  0.05410447     1.37500
O319        O  0.15884940  0.60237885  0.01187370    -0.56800
O320        O  0.16017572  0.61970862  0.07940743    -0.55700
C321        C  0.08484454  0.55801749  0.03325897     0.78100
O322        O  0.12691595  0.60867531  0.09662548    -0.58000
O323        O  0.13183659  0.60954293  0.01127682    -0.56500
O324        O  0.12617324  0.56165023  0.09653404    -0.56500
O325        O  0.10051494  0.55418145  0.02690650    -0.55600
O326        O  0.84904247  0.41078580  0.98070439    -0.56800
C327        C  0.86583396  0.45296906  0.90685835     0.75800
O328        O  0.91958263  0.43800372  0.94261850    -0.58000
C329        C  0.85644474  0.39991323  0.99502300     0.75800
C330        C  0.86335109  0.38716417  0.89951561     0.78100
Cd331      Cd  0.87883115  0.42518498  0.94062607     1.37500
O332        O  0.85912883  0.44675463  0.93408020    -0.56800
O333        O  0.85044609  0.39033332  0.91669462    -0.55700
C334        C  0.92511519  0.45497504  0.95948177     0.78100
O335        O  0.88398176  0.40185343  0.90084362    -0.58000
O336        O  0.87923063  0.44717818  0.89618919    -0.56500
O337        O  0.87475368  0.40208525  0.98545568    -0.56500
O338        O  0.90924565  0.45809730  0.96751849    -0.55600
O339        O  0.19329483  0.06427914  0.65546375    -0.56800
C340        C  0.20309226  0.10857894  0.58202099     0.75800
O341        O  0.25685255  0.09575246  0.59983865    -0.58000
C342        C  0.19993836  0.05075599  0.66253199     0.75800
C343        C  0.19624203  0.04200792  0.56174523     0.78100
Cd344      Cd  0.21538017  0.07743089  0.60724791     1.37500
O345        O  0.19368259  0.09754941  0.60614184    -0.56800
O346        O  0.18452409  0.04711282  0.57858349    -0.55700
C347        C  0.26140747  0.10752573  0.62403550     0.78100
O348        O  0.21728695  0.05341716  0.56575973    -0.58000
O349        O  0.21825961  0.10557655  0.57067373    -0.56500
O350        O  0.21367071  0.04979550  0.64415259    -0.56500
O351        O  0.24494619  0.10519038  0.63975208    -0.55600
O352        O  0.48002894  0.26728906  0.68214431    -0.56800
C353        C  0.47328918  0.22952094  0.76203743     0.75800
O354        O  0.45277434  0.27896972  0.77114388    -0.58000
C355        C  0.47709371  0.28371403  0.67718085     0.75800
C356        C  0.41378103  0.22360275  0.70747619     0.78100
Cd357      Cd  0.45808787  0.25607377  0.73034779     1.37500
O358        O  0.48399744  0.24139865  0.73910098    -0.56800
O359        O  0.43174498  0.22547806  0.69697972    -0.55700
C360        C  0.47361777  0.29045683  0.77704821     0.78100
O361        O  0.41612251  0.23703405  0.72905273    -0.58000
O362        O  0.45523538  0.22911353  0.76869143    -0.56500
O363        O  0.46534327  0.28704279  0.69648995    -0.56500
O364        O  0.48635220  0.28625935  0.76101527    -0.55600
O365        O  0.21690193  0.73243374  0.81131079    -0.56800
C366        C  0.25002788  0.78006091  0.74572283     0.75800
O367        O  0.17605894  0.72969041  0.73305672    -0.58000
C368        C  0.19730735  0.72094837  0.82216298     0.75800
C369        C  0.19397994  0.78211731  0.79612699     0.78100
Cd370      Cd  0.20640679  0.75097430  0.77126253     1.37500
O371        O  0.24704379  0.76606651  0.76654396    -0.56800
O372        O  0.21104487  0.78142634  0.80511485    -0.55700
C373        C  0.18512954  0.71913512  0.72215009     0.78100
O374        O  0.18278206  0.76865145  0.77471465    -0.58000
O375        O  0.23305133  0.78120168  0.73747948    -0.56500
O376        O  0.18231029  0.72363979  0.80975471    -0.56500
O377        O  0.20394906  0.72398019  0.73309271    -0.55600
O378        O  0.09676577  0.90335177  0.90370871    -0.56800
C379        C  0.14942492  0.95188210  0.85266860     0.75800
O380        O  0.16293941  0.94231722  0.95178995    -0.58000
C381        C  0.09394312  0.89440134  0.92991500     0.75800
C382        C  0.15213537  0.89159736  0.88822318     0.78100
Cd383      Cd  0.13829316  0.92327694  0.90628893     1.37500
O384        O  0.12980772  0.94199449  0.86381198    -0.56800
O385        O  0.13454845  0.89073007  0.87812351    -0.55700
C386        C  0.15662462  0.95658807  0.95461991     0.78100
O387        O  0.16354879  0.90717482  0.90721766    -0.58000
O388        O  0.16331837  0.94789348  0.86597537    -0.56500
O389        O  0.11144616  0.89846143  0.94439530    -0.56500
O390        O  0.14226502  0.95523395  0.93550681    -0.55600
O391        O  0.55098401  0.40538224  0.49168635    -0.56800
C392        C  0.58496566  0.45107805  0.41798385     0.75800
O393        O  0.51591326  0.39840331  0.40349987    -0.58000
C394        C  0.53066625  0.39147637  0.49815401     0.75800
C395        C  0.52711192  0.45062723  0.46534084     0.78100
Cd396      Cd  0.54206381  0.42054373  0.44544974     1.37500
O397        O  0.58359889  0.44073512  0.44265338    -0.56800
O398        O  0.54284164  0.44949849  0.47844999    -0.55700
C399        C  0.52399597  0.38560409  0.39997495     0.78100
O400        O  0.51777005  0.43740205  0.44292616    -0.58000
O401        O  0.56665690  0.44767591  0.40668086    -0.56500
O402        O  0.51616152  0.39165090  0.48066490    -0.56500
O403        O  0.54045821  0.38944503  0.41679893    -0.55600
O404        O  0.41848489  0.56423417  0.56884149    -0.56800
C405        C  0.46903540  0.61455999  0.51079423     0.75800
O406        O  0.48833622  0.60787388  0.60236168    -0.58000
C407        C  0.41834639  0.55393702  0.59300399     0.75800
C408        C  0.47791080  0.55782575  0.54187839     0.78100
Cd409      Cd  0.46012289  0.58532132  0.56313683     1.37500
O410        O  0.44954980  0.59796475  0.51533514    -0.56800
O411        O  0.46141736  0.55768218  0.52907431    -0.55700
C412        C  0.47840938  0.61814009  0.61125108     0.78100
O413        O  0.48624068  0.57069732  0.56482361    -0.58000
O414        O  0.48369832  0.61746492  0.53044772    -0.56500
O415        O  0.43728739  0.55773646  0.60224188    -0.56500
O416        O  0.46017147  0.61307481  0.59794781    -0.55600
O417        O  0.91483036  0.10179293  0.10410092    -0.56800
C418        C  0.86663596  0.05717769  0.16148599     0.75800
O419        O  0.84406974  0.09546929  0.10500151    -0.58000
C420        C  0.91642067  0.11091548  0.07826483     0.75800
C421        C  0.85524689  0.04881296  0.06068706     0.78100
Cd422      Cd  0.87325398  0.08390932  0.10668202     1.37500
O423        O  0.88215332  0.07746116  0.16036934    -0.56800
O424        O  0.87543166  0.05853999  0.06950093    -0.55700
C425        C  0.85591091  0.11407608  0.11845355     0.78100
O426        O  0.84329171  0.05627916  0.07194810    -0.58000
O427        O  0.85486480  0.04992567  0.13758192    -0.56500
O428        O  0.89835262  0.10818627  0.06690165    -0.56500
O429        O  0.87531358  0.11850388  0.12632991    -0.55600
O430        O  0.75030487  0.23279173  0.21879784    -0.56800
C431        C  0.79568952  0.27938919  0.15547200     0.75800
O432        O  0.82103177  0.27533120  0.25019792    -0.58000
C433        C  0.75096166  0.22437712  0.24432425     0.75800
C434        C  0.80608222  0.22315172  0.18736767     0.78100
Cd435      Cd  0.79185529  0.25373888  0.21007703     1.37500
O436        O  0.77758242  0.26966488  0.17073847    -0.56800
O437        O  0.78745419  0.22119344  0.17998680    -0.55700
C438        C  0.81690304  0.29123113  0.25201851     0.78100
O439        O  0.81818602  0.23929965  0.20521287    -0.58000
O440        O  0.81123858  0.27616428  0.16452463    -0.56500
O441        O  0.77026735  0.22954979  0.25384857    -0.56500
O442        O  0.80152494  0.28968646  0.23471850    -0.55600
O443        O  0.81886962  0.89917067  0.39562869    -0.56800
C444        C  0.82022881  0.95030093  0.34080847     0.75800
O445        O  0.75735108  0.90225961  0.39119496    -0.58000
C446        C  0.81072719  0.89100624  0.42176119     0.75800
C447        C  0.81458168  0.95544391  0.43616631     0.78100
Cd448      Cd  0.79884154  0.92013905  0.39149982     1.37500
O449        O  0.82770506  0.93798371  0.35038306    -0.56800
O450        O  0.82678937  0.94864103  0.42423014    -0.55700
C451        C  0.75424828  0.88749037  0.37132559     0.78100
O452        O  0.79398192  0.94480473  0.42883455    -0.58000
O453        O  0.80231515  0.94724648  0.35319503    -0.56500
O454        O  0.79705553  0.89616554  0.43323203    -0.56500
O455        O  0.77172277  0.88818822  0.36090849    -0.55600
O456        O  0.52783589  0.77059104  0.27419806    -0.56800
C457        C  0.52958042  0.72056743  0.32831351     0.75800
O458        O  0.55408478  0.73097698  0.23213105    -0.58000
C459        C  0.53651111  0.78066895  0.24918424     0.75800
C460        C  0.59659638  0.77983261  0.29523905     0.78100
Cd461      Cd  0.55001845  0.75116885  0.27664559     1.37500
O462        O  0.52853878  0.73833155  0.32601317    -0.56800
O463        O  0.58101454  0.78311557  0.30412326    -0.55700
C464        C  0.53325901  0.71978952  0.22626147     0.78100
O465        O  0.59084707  0.76324035  0.27750570    -0.58000
O466        O  0.54014439  0.71742723  0.30698085    -0.56500
O467        O  0.55184677  0.77777472  0.23819027    -0.56500
O468        O  0.52067066  0.72334689  0.24365757    -0.55600
C469        C  0.69118721  0.84549201  0.37039108    -0.04500
C470        C  0.68774237  0.83854832  0.33941627     0.09700
C471        C  0.70622287  0.84688027  0.31927273    -0.01900
C472        C  0.72785985  0.86289962  0.32956253    -0.00100
C473        C  0.73137931  0.87027339  0.36054077    -0.03800
C474        C  0.71294069  0.86091692  0.38108664     0.03300
C475        C  0.66447800  0.82327943  0.32756768     0.10100
C476        C  0.70289098  0.83900759  0.28776958     0.36000
C477        C  0.71639120  0.86633365  0.41354464     0.39400
C478        C  0.65213656  0.83246036  0.31473774    -0.04100
C479        C  0.63003269  0.81831102  0.30420478     0.03000
C480        C  0.62028667  0.79473127  0.30535128    -0.03700
C481        C  0.63302900  0.78557280  0.31725217     0.00000
C482        C  0.65483113  0.79980212  0.32893870    -0.02500
C483        C  0.66231666  0.85659204  0.31236541     0.36700
C484        C  0.62352093  0.76148880  0.31836284     0.40400
C485        C  0.61753795  0.82815827  0.29161463     0.39500
C486        C  0.66724764  0.79034578  0.34295078     0.36400
C487        C  0.67223058  0.83681918  0.39121558     0.37100
C488        C  0.74629342  0.87226380  0.30779298     0.40300
N489        N  0.60763875  0.83615098  0.28174893    -0.37700
N490        N  0.67058369  0.87584609  0.31038459    -0.39300
N491        N  0.61600502  0.74227548  0.31911112    -0.37100
N492        N  0.67712623  0.78285837  0.35440168    -0.39400
N493        N  0.70028943  0.83264495  0.26268419    -0.39200
N494        N  0.76101322  0.87975806  0.29046073    -0.36800
N495        N  0.71918096  0.87047205  0.43947916    -0.37900
N496        N  0.65708227  0.82993926  0.40779444    -0.39600
C497        C  0.87473539  0.03249338  0.23603848    -0.04500
C498        C  0.85326569  0.01365626  0.24016553     0.09700
C499        C  0.83611586  0.00927917  0.21905533    -0.01900
C500        C  0.84039200  0.02356204  0.19374887    -0.00100
C501        C  0.86210706  0.04243299  0.18898432    -0.03800
C502        C  0.87928196  0.04674851  0.21048746     0.03300
C503        C  0.84803258  0.99890993  0.26769906     0.10100
C504        C  0.81381424  0.99024957  0.22389270     0.36000
C505        C  0.90177513  0.06550628  0.20630826     0.39400
C506        C  0.83980967  0.00370217  0.29453490    -0.04100
C507        C  0.83166523  0.98824779  0.31893523     0.03000
C508        C  0.83168984  0.96776691  0.31668924    -0.03700
C509        C  0.84204257  0.96408794  0.29098996     0.00000
C510        C  0.84984874  0.97947213  0.26635338    -0.02500
C511        C  0.83955996  0.02453818  0.29679482     0.36700
C512        C  0.84435241  0.94437503  0.28947054     0.40400
C513        C  0.82389621  0.99385854  0.34674471     0.39500
C514        C  0.85935690  0.97513870  0.23928769     0.36400
C515        C  0.89206752  0.03737579  0.25855628     0.37100
C516        C  0.82193003  0.01894912  0.17333448     0.40300
N517        N  0.81781267  0.99839568  0.36895798    -0.37700
N518        N  0.83953294  0.04124612  0.29852297    -0.39300
N519        N  0.84647274  0.92879570  0.28839950    -0.37100
N520        N  0.86696242  0.97169847  0.21768847    -0.39400
N521        N  0.79599702  0.97511781  0.22782657    -0.39200
N522        N  0.80719696  0.01520785  0.15714703    -0.36800
N523        N  0.91979853  0.08047604  0.20312090    -0.37900
N524        N  0.90576481  0.04127211  0.27667778    -0.39600
C525        C  0.81987614  0.13770407  0.14850213    -0.04500
C526        C  0.83402456  0.16085859  0.14331694     0.09700
C527        C  0.85476358  0.16848628  0.12836999    -0.01900
C528        C  0.86155527  0.15312755  0.11927911    -0.00100
C529        C  0.84767328  0.12993675  0.12519339    -0.03800
C530        C  0.82655116  0.12227822  0.13926050     0.03300
C531        C  0.82723388  0.17724305  0.15430804     0.10100
C532        C  0.86928081  0.19225476  0.12285821     0.36000
C533        C  0.81199558  0.09861331  0.14541842     0.39400
C534        C  0.83163424  0.18515740  0.18482508    -0.04100
C535        C  0.82480512  0.20013310  0.19555809     0.03000
C536        C  0.81330944  0.20728551  0.17588791    -0.03700
C537        C  0.80876763  0.19912677  0.14527418     0.00000
C538        C  0.81601933  0.18446905  0.13449384    -0.02500
C539        C  0.84317603  0.17775653  0.20523169     0.36700
C540        C  0.79690424  0.20595341  0.12455077     0.40400
C541        C  0.82883948  0.20738360  0.22736115     0.39500
C542        C  0.81217131  0.17693710  0.10281000     0.36400
C543        C  0.79866808  0.12986715  0.16418768     0.37100
C544        C  0.88263247  0.16119219  0.10311042     0.40300
N545        N  0.83200621  0.21314499  0.25272280    -0.37700
N546        N  0.85237683  0.17180678  0.22147532    -0.39300
N547        N  0.78727938  0.21118180  0.10794828    -0.37100
N548        N  0.80929970  0.17104024  0.07750201    -0.39400
N549        N  0.88083303  0.21123332  0.11854878    -0.39200
N550        N  0.89939586  0.16761834  0.09007752    -0.36800
N551        N  0.80033580  0.07973298  0.15030731    -0.37900
N552        N  0.78183116  0.12372712  0.17689295    -0.39600
C553        C  0.47478857  0.63546729  0.42814242    -0.04500
C554        C  0.49036648  0.65851401  0.43173671     0.09700
C555        C  0.49764097  0.66732872  0.46144041    -0.01900
C556        C  0.49006477  0.65311610  0.48729802    -0.00100
C557        C  0.47492350  0.62983612  0.48377178    -0.03800
C558        C  0.46685635  0.62121638  0.45403913     0.03300
C559        C  0.49960211  0.67359345  0.40425567     0.10100
C560        C  0.51323385  0.69110246  0.46529301     0.36000
C561        C  0.45098535  0.59756586  0.44977068     0.39400
C562        C  0.49124601  0.68774232  0.39606122    -0.04100
C563        C  0.50081688  0.70292442  0.37133968     0.03000
C564        C  0.51907245  0.70421495  0.35441407    -0.03700
C565        C  0.52702931  0.68946225  0.36247303     0.00000
C566        C  0.51733726  0.67433975  0.38720656    -0.02500
C567        C  0.47263779  0.68656306  0.41322112     0.36700
C568        C  0.54554753  0.68990416  0.34597543     0.40400
C569        C  0.49125753  0.71668265  0.36306291     0.39500
C570        C  0.52581083  0.65961993  0.39548969     0.36400
C571        C  0.46730732  0.62636420  0.39761352     0.37100
C572        C  0.49763183  0.66267250  0.51764198     0.40300
N573        N  0.48351264  0.72758590  0.35657061    -0.37700
N574        N  0.45780945  0.68555056  0.42701477    -0.39300
N575        N  0.56023473  0.69006171  0.33287613    -0.37100
N576        N  0.53248558  0.64781727  0.40210006    -0.39400
N577        N  0.52560076  0.71009026  0.46826040    -0.39200
N578        N  0.50368103  0.67032103  0.54181149    -0.36800
N579        N  0.43821660  0.57872330  0.44628919    -0.37900
N580        N  0.46147536  0.61911120  0.37321944    -0.39600
C581        C  0.49592912  0.52628506  0.48779361    -0.04500
C582        C  0.50096641  0.51391853  0.50869601     0.09700
C583        C  0.49958341  0.51678812  0.54052731    -0.01900
C584        C  0.49247984  0.53145886  0.55147946    -0.00100
C585        C  0.48677503  0.54343369  0.53055444    -0.03800
C586        C  0.48894885  0.54106827  0.49862481     0.03300
C587        C  0.50764434  0.49771744  0.49710437     0.10100
C588        C  0.50526810  0.50440221  0.56198966     0.36000
C589        C  0.48472549  0.55436278  0.47681642     0.39400
C590        C  0.53048435  0.50449608  0.49369356    -0.04100
C591        C  0.53683060  0.48910158  0.48342112     0.03000
C592        C  0.52028761  0.46686992  0.47577192    -0.03700
C593        C  0.49735457  0.46026439  0.47867136     0.00000
C594        C  0.49109504  0.47562963  0.48948322    -0.02500
C595        C  0.54743667  0.52747546  0.50038358     0.36700
C596        C  0.48013892  0.43744038  0.47172687     0.40400
C597        C  0.56045728  0.49639636  0.48015557     0.39500
C598        C  0.46759281  0.46874302  0.49299698     0.36400
C599        C  0.49802148  0.52376330  0.45508658     0.37100
C600        C  0.49027002  0.53351925  0.58427891     0.40300
N601        N  0.57929946  0.50218285  0.47770416    -0.37700
N602        N  0.56091836  0.54584697  0.50556308    -0.39300
N603        N  0.46636690  0.41923595  0.46623558    -0.37100
N604        N  0.44886919  0.46333671  0.49583103    -0.39400
N605        N  0.50986087  0.49455324  0.57907633    -0.39200
N606        N  0.48851221  0.53517344  0.61044533    -0.36800
N607        N  0.48146834  0.56501971  0.45939602    -0.37900
N608        N  0.49973561  0.52167535  0.42902624    -0.39600
C609        C  0.17220989  0.82303226  0.80626208    -0.04500
C610        C  0.17681656  0.82875433  0.83758816     0.09700
C611        C  0.18630038  0.81866215  0.85543348    -0.01900
C612        C  0.19140006  0.80310829  0.84207628    -0.00100
C613        C  0.18749554  0.79780278  0.81036483    -0.03800
C614        C  0.17749366  0.80764039  0.79267129     0.03300
C615        C  0.17082106  0.84478203  0.85210718     0.10100
C616        C  0.19046681  0.82405100  0.88784267     0.36000
C617        C  0.17275967  0.80222013  0.76034707     0.39400
C618        C  0.14852932  0.83724326  0.86119528    -0.04100
C619        C  0.14258565  0.85236284  0.87392361     0.03000
C620        C  0.15894052  0.87526910  0.87769732    -0.03700
C621        C  0.18149172  0.88258967  0.86968283     0.00000
C622        C  0.18734606  0.86740485  0.85680822    -0.02500
C623        C  0.13169930  0.81382102  0.85733149     0.36700
C624        C  0.19859372  0.90591703  0.87346383     0.40400
C625        C  0.11966485  0.84411759  0.88385120     0.39500
C626        C  0.21033226  0.87511146  0.84777745     0.36400
C627        C  0.16194030  0.83301047  0.78807122     0.37100
C628        C  0.19954606  0.79172561  0.86153928     0.40300
N629        N  0.10139594  0.83750673  0.89183352    -0.37700
N630        N  0.11837305  0.79511610  0.85413370    -0.39300
N631        N  0.21226454  0.92452289  0.87650511    -0.37100
N632        N  0.22865406  0.88120261  0.84055908    -0.39400
N633        N  0.19380810  0.82837167  0.91365776    -0.39200
N634        N  0.20589773  0.78253587  0.87713857    -0.36800
N635        N  0.16881883  0.79784156  0.73462864    -0.37900
N636        N  0.15364468  0.84092960  0.77365513    -0.39600
C637        C  0.49595746  0.35194594  0.56306588    -0.04500
C638        C  0.50947330  0.34302814  0.57202834     0.09700
C639        C  0.53011593  0.35013364  0.55713894    -0.01900
C640        C  0.53726129  0.36612779  0.53330640    -0.00100
C641        C  0.52389192  0.37542238  0.52442931    -0.03800
C642        C  0.50328234  0.36839952  0.53992121     0.03300
C643        C  0.50263141  0.32742734  0.59883791     0.10100
C644        C  0.54394628  0.34088248  0.56644863     0.36000
C645        C  0.48997335  0.37876393  0.53324271     0.39400
C646        C  0.49018400  0.30400486  0.59453785    -0.04100
C647        C  0.48226205  0.28956298  0.62016585     0.03000
C648        C  0.48688305  0.29855358  0.65019609    -0.03700
C649        C  0.50007699  0.32195107  0.65442193     0.00000
C650        C  0.50792554  0.33633148  0.62883448    -0.02500
C651        C  0.48529087  0.29479015  0.56371255     0.36700
C652        C  0.50595929  0.33125396  0.68519816     0.40400
C653        C  0.46849850  0.26557725  0.61570092     0.39500
C654        C  0.52139137  0.36034792  0.63323933     0.36400
C655        C  0.47438245  0.34410224  0.57780960     0.37100
C656        C  0.55821256  0.37254768  0.51764597     0.40300
N657        N  0.45742365  0.24639224  0.61233762    -0.37700
N658        N  0.48144151  0.28737631  0.53918330    -0.39300
N659        N  0.51068596  0.33860278  0.70970731    -0.37100
N660        N  0.53219719  0.37954938  0.63660941    -0.39400
N661        N  0.55491683  0.33342199  0.57395329    -0.39200
N662        N  0.57494230  0.37764442  0.50526584    -0.36800
N663        N  0.47939063  0.38711892  0.52814643    -0.37900
N664        N  0.45713969  0.33770616  0.58942980    -0.39600
C665        C  0.17983999  0.00070438  0.71658975    -0.04500
C666        C  0.17686420  0.00952332  0.74429199     0.09700
C667        C  0.18119683  0.03176640  0.74513331    -0.01900
C668        C  0.18903515  0.04536408  0.71866409    -0.00100
C669        C  0.19200062  0.03657910  0.69074719    -0.03800
C670        C  0.18732272  0.01410865  0.68994253     0.03300
C671        C  0.16953230  0.99539408  0.77274853     0.10100
C672        C  0.17728562  0.04056513  0.77329376     0.36000
C673        C  0.18959931  0.00440546  0.66150384     0.39400
C674        C  0.18545470  0.99811015  0.79506810    -0.04100
C675        C  0.17880953  0.98434980  0.82137747     0.03000
C676        C  0.15607273  0.96738013  0.82558190    -0.03700
C677        C  0.14000702  0.96526923  0.80344338     0.00000
C678        C  0.14682813  0.97911070  0.77712988    -0.02500
C679        C  0.20880971  0.01496877  0.79069779     0.36700
C680        C  0.11649130  0.94876526  0.80714244     0.40400
C681        C  0.19557917  0.98833449  0.84447105     0.39500
C682        C  0.13048373  0.97642425  0.75408679     0.36400
C683        C  0.17490516  0.97767501  0.71552017     0.37100
C684        C  0.19494416  0.06865367  0.72065581     0.40300
N685        N  0.20893344  0.99153956  0.86282667    -0.37700
N686        N  0.22747271  0.02844053  0.78724882    -0.39300
N687        N  0.09761043  0.93574381  0.80995354    -0.37100
N688        N  0.11762316  0.97431000  0.73552830    -0.39400
N689        N  0.17401875  0.04749138  0.79569703    -0.39200
N690        N  0.19979086  0.08729554  0.72233722    -0.36800
N691        N  0.19141893  0.99664029  0.63890046    -0.37900
N692        N  0.17077707  0.95922366  0.71472965    -0.39600
C693        C  0.36702117  0.16986648  0.67053978    -0.04500
C694        C  0.34938196  0.17450781  0.66875545     0.09700
C695        C  0.35261769  0.19506890  0.68013381    -0.01900
C696        C  0.37337550  0.21092041  0.69332058    -0.00100
C697        C  0.39134162  0.20651595  0.69478653    -0.03800
C698        C  0.38789155  0.18573910  0.68324633     0.03300
C699        C  0.32695433  0.15701922  0.65658118     0.10100
C700        C  0.33442665  0.19980950  0.67843547     0.36000
C701        C  0.40546737  0.18011076  0.68524609     0.39400
C702        C  0.31200930  0.13937255  0.67585128    -0.04100
C703        C  0.29111273  0.12254007  0.66457419     0.03000
C704        C  0.28470714  0.12344147  0.63407232    -0.03700
C705        C  0.29987455  0.14075644  0.61447252     0.00000
C706        C  0.32091558  0.15754965  0.62574887    -0.02500
C707        C  0.31806879  0.13874502  0.70752753     0.36700
C708        C  0.29354282  0.14172133  0.58303580     0.40400
C709        C  0.27639841  0.10386143  0.68414902     0.39500
C710        C  0.33621092  0.17559643  0.60580901     0.36400
C711        C  0.36343949  0.14840979  0.65972635     0.37100
C712        C  0.37619283  0.23190231  0.70483365     0.40300
N713        N  0.26468084  0.08883437  0.69956282    -0.37700
N714        N  0.32292066  0.13832515  0.73281417    -0.39300
N715        N  0.28845058  0.14241347  0.55795110    -0.37100
N716        N  0.34833330  0.19003482  0.58986358    -0.39400
N717        N  0.31992054  0.20359968  0.67700078    -0.39200
N718        N  0.37835841  0.24858803  0.71414379    -0.36800
N719        N  0.41939712  0.17548937  0.68669797    -0.37900
N720        N  0.36038703  0.13120010  0.65126728    -0.39600
C721        C  0.79932707  0.32805724  0.10950084    -0.04500
C722        C  0.81301518  0.32915840  0.08472943     0.09700
C723        C  0.81839120  0.31210331  0.08094380    -0.01900
C724        C  0.81169903  0.29507212  0.10319768    -0.00100
C725        C  0.79925728  0.29477474  0.12928846    -0.03800
C726        C  0.79229215  0.31084807  0.13157779     0.03300
C727        C  0.82306533  0.34901634  0.06368762     0.10100
C728        C  0.83106913  0.31228727  0.05420831     0.36000
C729        C  0.77889978  0.31053956  0.15747178     0.39400
C730        C  0.84531261  0.36647451  0.06844299    -0.04100
C731        C  0.85570845  0.38415586  0.04714085     0.03000
C732        C  0.84402407  0.38439025  0.02071412    -0.03700
C733        C  0.82110300  0.36797676  0.01742466     0.00000
C734        C  0.81070172  0.35029343  0.03883034    -0.02500
C735        C  0.85754391  0.36611126  0.09524179     0.36700
C736        C  0.80840507  0.36867630  0.99140783     0.40400
C737        C  0.87827058  0.40246661  0.05279103     0.39500
C738        C  0.78740137  0.33314229  0.03502660     0.36400
C739        C  0.79310727  0.34513097  0.11270707     0.37100
C740        C  0.81757253  0.27780099  0.09904517     0.40300
N741        N  0.89616584  0.41723168  0.05739148    -0.37700
N742        N  0.86724785  0.36580640  0.11667740    -0.39300
N743        N  0.79822276  0.36925843  0.97072756    -0.37100
N744        N  0.76876253  0.31951613  0.03216814    -0.39400
N745        N  0.84108411  0.31240235  0.03279565    -0.39200
N746        N  0.82230956  0.26407434  0.09558236    -0.36800
N747        N  0.76815299  0.31030229  0.17805548    -0.37900
N748        N  0.78815985  0.35877902  0.11506102    -0.39600
C749        C  0.17274203  0.68946611  0.89684890    -0.04500
C750        C  0.18062903  0.67417021  0.89684634     0.09700
C751        C  0.19446451  0.67456603  0.87268222    -0.01900
C752        C  0.20015623  0.68998191  0.84836621    -0.00100
C753        C  0.19199648  0.70512835  0.84811859    -0.03800
C754        C  0.17816183  0.70469286  0.87243964     0.03300
C755        C  0.17355068  0.65708043  0.92183719     0.10100
C756        C  0.20254959  0.65881908  0.87268783     0.36000
C757        C  0.16954862  0.72002721  0.87259558     0.39400
C758        C  0.15171380  0.63827843  0.92170011    -0.04100
C759        C  0.14437076  0.62292424  0.94620919     0.03000
C760        C  0.15879901  0.62625612  0.97115383    -0.03700
C761        C  0.18097829  0.64462653  0.97070620     0.00000
C762        C  0.18826001  0.66009237  0.94619854    -0.02500
C763        C  0.13653164  0.63513624  0.89671446     0.36700
C764        C  0.19592742  0.64841538  0.99623483     0.40400
C765        C  0.12186670  0.60363752  0.94577972     0.39500
C766        C  0.21051820  0.67971061  0.94664364     0.36400
C767        C  0.15907220  0.68954898  0.92213512     0.37100
C768        C  0.21335347  0.68934544  0.82283275     0.40300
N769        N  0.10393273  0.58823509  0.94552516    -0.37700
N770        N  0.12438464  0.63275956  0.87692109    -0.39300
N771        N  0.20793211  0.65156486  0.01654675    -0.37100
N772        N  0.22822248  0.69545862  0.94688094    -0.39400
N773        N  0.20902598  0.64629071  0.87286200    -0.39200
N774        N  0.22377394  0.68869858  0.80239416    -0.36800
N775        N  0.16253118  0.73211144  0.87260340    -0.37900
N776        N  0.14818534  0.68963232  0.94233702    -0.39600
C777        C  0.98943857  0.48919724  0.95907625    -0.04500
C778        C  0.99399958  0.49973425  0.98802476     0.09700
C779        C  0.97604697  0.49579307  0.00755317    -0.01900
C780        C  0.95365097  0.48119619  0.99838910    -0.00100
C781        C  0.94889925  0.47041072  0.96932809    -0.03800
C782        C  0.96707505  0.47465146  0.94969866     0.03300
C783        C  0.01775898  0.51478388  0.99831747     0.10100
C784        C  0.98070861  0.50672668  0.03730540     0.36000
C785        C  0.96295042  0.46475083  0.91931003     0.39400
C786        C  0.02767572  0.53826737  0.99637294    -0.04100
C787        C  0.04940057  0.55243765  0.00824764     0.03000
C788        C  0.06162023  0.54317551  0.02158195    -0.03700
C789        C  0.05197562  0.51959514  0.02221405     0.00000
C790        C  0.03024724  0.50551825  0.01041450    -0.02500
C791        C  0.01588021  0.54776544  0.98068837     0.36700
C792        C  0.06416723  0.50963453  0.03553528     0.40400
C793        C  0.05950917  0.57652441  0.00542426     0.39500
C794        C  0.02096193  0.48145434  0.00977685     0.36400
C795        C  0.00791319  0.49358092  0.93880527     0.37100
C796        C  0.93561987  0.47689877  0.01949292     0.40300
N797        N  0.06758780  0.59574761  0.00307336    -0.37700
N798        N  0.00656672  0.55524972  0.96770888    -0.39300
N799        N  0.07383677  0.50159593  0.04601412    -0.37100
N800        N  0.01371225  0.46228015  0.00872551    -0.39400
N801        N  0.98446400  0.51552250  0.06098081    -0.39200
N802        N  0.92129778  0.47354914  0.03637807    -0.36800
N803        N  0.95977167  0.45693723  0.89500208    -0.37900
N804        N  0.02273868  0.49714541  0.92278901    -0.39600
C805        C  0.48149412  0.65491023  0.67834384    -0.04500
C806        C  0.50390517  0.67247669  0.67624926     0.09700
C807        C  0.51863399  0.67093912  0.65520791    -0.01900
C808        C  0.51062088  0.65255022  0.63491313    -0.00100
C809        C  0.48773419  0.63566467  0.63549705    -0.03800
C810        C  0.47340253  0.63654341  0.65806466     0.03300
C811        C  0.51106850  0.69374302  0.69348508     0.10100
C812        C  0.54182325  0.68882118  0.65361716     0.36000
C813        C  0.45029058  0.61855139  0.66054315     0.39400
C814        C  0.51733093  0.69579369  0.72462790    -0.04100
C815        C  0.52258504  0.71548218  0.74109141     0.03000
C816        C  0.52180991  0.73329378  0.72632366    -0.03700
C817        C  0.51559328  0.73115054  0.69501802     0.00000
C818        C  0.51031262  0.71147813  0.67871503    -0.02500
C819        C  0.51850814  0.67768231  0.73953987     0.36700
C820        C  0.51373738  0.74879923  0.67976238     0.40400
C821        C  0.52930690  0.71754849  0.77299398     0.39500
C822        C  0.50382510  0.70929568  0.64664535     0.36400
C823        C  0.46657722  0.65624835  0.70067652     0.37100
C824        C  0.52567434  0.65180914  0.61225829     0.40300
N825        N  0.53458309  0.71908278  0.79846308    -0.37700
N826        N  0.51948369  0.66321933  0.75139478    -0.39300
N827        N  0.51215537  0.76280517  0.66754579    -0.37100
N828        N  0.49870849  0.70742114  0.62107222    -0.39400
N829        N  0.56030029  0.70312280  0.65230033    -0.39200
N830        N  0.53768758  0.65121379  0.59418544    -0.36800
N831        N  0.43186545  0.60422680  0.66263200    -0.37900
N832        N  0.45481492  0.65745478  0.71859238    -0.39600
C833        C  0.80062426  0.95266932  0.98318465    -0.04500
C834        C  0.82074379  0.97258587  0.97649434     0.09700
C835        C  0.83331156  0.97351973  0.95042431    -0.01900
C836        C  0.82653626  0.95430494  0.93199937    -0.00100
C837        C  0.80663767  0.93393939  0.93907710    -0.03800
C838        C  0.79348393  0.93350346  0.96454330     0.03300
C839        C  0.82943965  0.99221243  0.99797986     0.10100
C840        C  0.85346267  0.99437692  0.94277677     0.36000
C841        C  0.77242890  0.91343223  0.97183482     0.39400
C842        C  0.84646678  0.99607414  0.01908564    -0.04100
C843        C  0.85488998  0.01451164  0.03935179     0.03000
C844        C  0.84622959  0.02932313  0.03895543    -0.03700
C845        C  0.82890943  0.02517074  0.01787753     0.00000
C846        C  0.82076994  0.00682876  0.99734119    -0.02500
C847        C  0.85523096  0.98089042  0.01999353     0.36700
C848        C  0.81974209  0.03996250  0.01662488     0.40400
C849        C  0.87208649  0.01762278  0.06122835     0.39500
C850        C  0.80365143  0.00312699  0.97504796     0.36400
C851        C  0.78738008  0.95185758  0.00958778     0.37100
C852        C  0.84080194  0.95546976  0.90673532     0.40300
N853        N  0.88581079  0.02005299  0.07852472    -0.37700
N854        N  0.86223351  0.96877323  0.02062741    -0.39300
N855        N  0.81230259  0.05170268  0.01560924    -0.37100
N856        N  0.79006434  0.00012753  0.95717589    -0.39400
N857        N  0.86946444  0.01105457  0.93670296    -0.39200
N858        N  0.85230779  0.95648750  0.88666457    -0.36800
N859        N  0.75568388  0.89746836  0.97783388    -0.37900
N860        N  0.77674770  0.95121815  0.03057422    -0.39600
C861        C  0.64697512  0.84483074  0.81847783    -0.04500
C862        C  0.65225100  0.82823299  0.82630697     0.09700
C863        C  0.63586440  0.80543908  0.82320268    -0.01900
C864        C  0.61420557  0.79920089  0.81248055    -0.00100
C865        C  0.60881633  0.81582783  0.80431918    -0.03800
C866        C  0.62539019  0.83871982  0.80761234     0.03300
C867        C  0.67531876  0.83483859  0.83727395     0.10100
C868        C  0.64145821  0.78836410  0.83067325     0.36000
C869        C  0.62016151  0.85615808  0.80091350     0.39400
C870        C  0.68107288  0.84012490  0.86844389    -0.04100
C871        C  0.70295996  0.84674814  0.87861081     0.03000
C872        C  0.71921732  0.84786743  0.85769306    -0.03700
C873        C  0.71334775  0.84258055  0.82640406     0.00000
C874        C  0.69153008  0.83621825  0.81626957    -0.02500
C875        C  0.66449270  0.83908172  0.88994104     0.36700
C876        C  0.72951139  0.84310421  0.80459908     0.40400
C877        C  0.70901483  0.85351347  0.91030915     0.39500
C878        C  0.68571549  0.83131375  0.78408339     0.36400
C879        C  0.66392938  0.86827654  0.82146839     0.37100
C880        C  0.59777528  0.77559697  0.80929480     0.40300
N881        N  0.71386779  0.85905398  0.93555702    -0.37700
N882        N  0.65125672  0.83829716  0.90703205    -0.39300
N883        N  0.74222326  0.84336607  0.78700371    -0.37100
N884        N  0.68095198  0.82744352  0.75844237    -0.39400
N885        N  0.64593056  0.77473889  0.83644707    -0.39200
N886        N  0.58477011  0.75671010  0.80697246    -0.36800
N887        N  0.61601638  0.87008261  0.79562923    -0.37900
N888        N  0.67751393  0.88697228  0.82385733    -0.39600
C889        C  0.49904059  0.19387551  0.78527951    -0.04500
C890        C  0.49608953  0.19280631  0.81745059     0.09700
C891        C  0.48609161  0.20411737  0.83133881    -0.01900
C892        C  0.47860671  0.21595540  0.81323336    -0.00100
C893        C  0.48152323  0.21710046  0.78091437    -0.03800
C894        C  0.49220697  0.20631848  0.76712700     0.03300
C895        C  0.50392056  0.18019461  0.83701162     0.10100
C896        C  0.48369002  0.20374766  0.86447456     0.36000
C897        C  0.49577431  0.20752440  0.73419908     0.39400
C898        C  0.52695593  0.18927901  0.84292861    -0.04100
C899        C  0.53432248  0.17814981  0.86272625     0.03000
C900        C  0.51862062  0.15796458  0.87762103    -0.03700
C901        C  0.49550397  0.14867613  0.87106148     0.00000
C902        C  0.48827073  0.15967147  0.85069531    -0.02500
C903        C  0.54312784  0.21040960  0.82899953     0.36700
C904        C  0.47891472  0.12827191  0.88605147     0.40400
C905        C  0.55823717  0.18748340  0.86711731     0.39500
C906        C  0.46459374  0.15004380  0.84406925     0.36400
C907        C  0.50879721  0.18181059  0.77082293     0.37100
C908        C  0.46853413  0.22755910  0.82825940     0.40300
N909        N  0.57732178  0.19499397  0.87051495    -0.37700
N910        N  0.55601562  0.22723066  0.81784003    -0.39300
N911        N  0.46557777  0.11200093  0.89794337    -0.37100
N912        N  0.44572067  0.14246346  0.83878689    -0.39400
N913        N  0.48171632  0.20344042  0.89088275    -0.39200
N914        N  0.46049368  0.23679970  0.84021593    -0.36800
N915        N  0.49876611  0.20857019  0.70795235    -0.37900
N916        N  0.51653654  0.17213457  0.75931965    -0.39600
C917        C  0.49681174  0.82037733  0.14714223    -0.04500
C918        C  0.50591599  0.83048604  0.17570623     0.09700
C919        C  0.50830100  0.85152567  0.18279708    -0.01900
C920        C  0.50174058  0.86248547  0.16137491    -0.00100
C921        C  0.49250754  0.85235584  0.13271269    -0.03800
C922        C  0.48996340  0.83109963  0.12585530     0.03300
C923        C  0.51396249  0.81924808  0.19749837     0.10100
C924        C  0.51751228  0.86186293  0.21223925     0.36000
C925        C  0.48086088  0.82033559  0.09653613     0.39400
C926        C  0.53691398  0.82602631  0.19851105    -0.04100
C927        C  0.54437018  0.81387448  0.21603157     0.03000
C928        C  0.52886808  0.79468503  0.23285541    -0.03700
C929        C  0.50583301  0.78816812  0.23216004     0.00000
C930        C  0.49851957  0.80061102  0.21492576    -0.02500
C931        C  0.55283194  0.84528964  0.18077079     0.36700
C932        C  0.48931458  0.76768994  0.24712538     0.40400
C933        C  0.56806762  0.82109424  0.21611894     0.39500
C934        C  0.47497017  0.79399185  0.21455166     0.36400
C935        C  0.49495509  0.79904388  0.13941544     0.37100
C936        C  0.50384157  0.88385377  0.16937149     0.40300
N937        N  0.58697192  0.82685669  0.21574271    -0.37700
N938        N  0.56546249  0.86070323  0.16666121    -0.39300
N939        N  0.47608410  0.75122967  0.25874363    -0.37100
N940        N  0.45619531  0.78875960  0.21430443    -0.39400
N941        N  0.52490461  0.87012553  0.23571753    -0.39200
N942        N  0.50550387  0.90090197  0.17574521    -0.36800
N943        N  0.47353442  0.81158960  0.07327496    -0.37900
N944        N  0.49354805  0.78206039  0.13334471    -0.39600
C945        C  0.50330792  0.83662834  0.96196838    -0.04500
C946        C  0.49170020  0.83298506  0.93401875     0.09700
C947        C  0.47393784  0.83750782  0.93208904    -0.01900
C948        C  0.46812203  0.84612431  0.95773556    -0.00100
C949        C  0.48052513  0.85090376  0.98532290    -0.03800
C950        C  0.49782744  0.84560990  0.98744090     0.03300
C951        C  0.49930487  0.82588942  0.90606479     0.10100
C952        C  0.46209530  0.83396701  0.90326427     0.36000
C953        C  0.50996437  0.84909901  0.01602375     0.39400
C954        C  0.49419195  0.80351045  0.90234957    -0.04100
C955        C  0.50196412  0.79714723  0.87629298     0.03000
C956        C  0.51488438  0.81317824  0.85352694    -0.03700
C957        C  0.51978533  0.83562388  0.85738206     0.00000
C958        C  0.51235150  0.84194010  0.88371422    -0.02500
C959        C  0.48137729  0.78714486  0.92585224     0.36700
C960        C  0.53199865  0.85234225  0.83396796     0.40400
C961        C  0.49723438  0.77423760  0.87368159     0.39500
C962        C  0.51860842  0.86519527  0.88830096     0.36400
C963        C  0.52127725  0.83160482  0.96421709     0.37100
C964        C  0.44998225  0.85085991  0.95521792     0.40300
N965        N  0.49342742  0.75593582  0.87169438    -0.37700
N966        N  0.47134790  0.77418024  0.94477498    -0.39300
N967        N  0.54169674  0.86571099  0.81534283    -0.37100
N968        N  0.52364776  0.88373052  0.89216448    -0.39400
N969        N  0.45281665  0.83135886  0.88023039    -0.39200
N970        N  0.43540477  0.85454541  0.95323631    -0.36800
N971        N  0.51969434  0.85190161  0.03869592    -0.37900
N972        N  0.53555038  0.82746376  0.96595913    -0.39600
C973        C  0.51302465  0.02243478  0.96988036    -0.04500
C974        C  0.51090229  0.01831483  0.00177913     0.09700
C975        C  0.51411772  0.03557683  0.02215972    -0.01900
C976        C  0.51944061  0.05682763  0.01079202    -0.00100
C977        C  0.52170346  0.06110308  0.97880003    -0.03800
C978        C  0.51844264  0.04372047  0.95840971     0.03300
C979        C  0.50465751  0.99556315  0.01393404     0.10100
C980        C  0.51194212  0.03140298  0.05495343     0.36000
C981        C  0.52167203  0.04796017  0.92568436     0.39400
C982        C  0.52125707  0.98974633  0.01925733    -0.04100
C983        C  0.51524072  0.96819143  0.03035623     0.03000
C984        C  0.49244978  0.95211267  0.03578895    -0.03700
C985        C  0.47594323  0.95830409  0.03123740     0.00000
C986        C  0.48205229  0.97988891  0.02040564    -0.02500
C987        C  0.54455699  0.00598669  0.01307593     0.36700
C988        C  0.45264552  0.94274958  0.03867967     0.40400
C989        C  0.53252523  0.96247908  0.03535840     0.39500
C990        C  0.46505382  0.98608700  0.01594005     0.36400
C991        C  0.50978639  0.00472943  0.94887645     0.37100
C992        C  0.52201362  0.07409252  0.03217860     0.40300
N993        N  0.54637098  0.95799938  0.03944427    -0.37700
N994        N  0.56313214  0.01896714  0.00806635    -0.39300
N995        N  0.43407905  0.93036890  0.04468485    -0.37100
N996        N  0.45156824  0.99113831  0.01244793    -0.39400
N997        N  0.51019883  0.02804451  0.08110339    -0.39200
N998        N  0.52398952  0.08776681  0.04937011    -0.36800
N999        N  0.52435634  0.05135679  0.89958267    -0.37900
N1000       N  0.50723744  0.99059110  0.93215553    -0.39600
C1001       C  0.12960356  0.50636737  0.13755306    -0.04500
C1002       C  0.15167831  0.51053166  0.14086175     0.09700
C1003       C  0.16927058  0.52828413  0.12446353    -0.01900
C1004       C  0.16499240  0.54240976  0.10583388    -0.00100
C1005       C  0.14298507  0.53881655  0.10333175    -0.03800
C1006       C  0.12526381  0.52056460  0.11917142     0.03300
C1007       C  0.15692603  0.49787509  0.16409685     0.10100
C1008       C  0.19196808  0.53244852  0.12766908     0.36000
C1009       C  0.10252811  0.51645553  0.11702344     0.39400
C1010       C  0.16063679  0.48036037  0.15505642    -0.04100
C1011       C  0.16870493  0.47076058  0.17652712     0.03000
C1012       C  0.17246659  0.47826855  0.20733193    -0.03700
C1013       C  0.16681487  0.49440139  0.21678126     0.00000
C1014       C  0.15945585  0.50443009  0.19519238    -0.02500
C1015       C  0.15632268  0.47245955  0.12358521     0.36700
C1016       C  0.16807030  0.50032203  0.24898086     0.40400
C1017       C  0.17415032  0.45402148  0.16654365     0.39500
C1018       C  0.15494348  0.52190710  0.20484856     0.36400
C1019       C  0.11141676  0.48759498  0.15350813     0.37100
C1020       C  0.18357318  0.56163667  0.09116764     0.40300
N1021       N  0.17854178  0.44070568  0.15847846    -0.37700
N1022       N  0.15265674  0.46611021  0.09848672    -0.39300
N1023       N  0.16874614  0.50477615  0.27472010    -0.37100
N1024       N  0.15132622  0.53583929  0.21250271    -0.39400
N1025       N  0.21003152  0.53566112  0.13025398    -0.39200
N1026       N  0.19840437  0.57708318  0.07966636    -0.36800
N1027       N  0.08439924  0.51323507  0.11567466    -0.37900
N1028       N  0.09693241  0.47256243  0.16618526    -0.39600
C1029       C  0.18599001  0.15291784  0.56996254    -0.04500
C1030       C  0.18398223  0.15263537  0.53772337     0.09700
C1031       C  0.18836355  0.13807682  0.52015784    -0.01900
C1032       C  0.19469356  0.12385760  0.53462635    -0.00100
C1033       C  0.19648465  0.12383750  0.56703466    -0.03800
C1034       C  0.19214701  0.13853756  0.58462162     0.03300
C1035       C  0.17695499  0.16736610  0.52180498     0.10100
C1036       C  0.18614570  0.13763519  0.48700750     0.36000
C1037       C  0.19488922  0.13958839  0.61768026     0.39400
C1038       C  0.19320573  0.18807793  0.50926201    -0.04100
C1039       C  0.18670675  0.20014154  0.48973070     0.03000
C1040       C  0.16377176  0.19162858  0.48284899    -0.03700
C1041       C  0.14744528  0.17187265  0.49788364     0.00000
C1042       C  0.15404690  0.15961871  0.51674889    -0.02500
C1043       C  0.21672946  0.19648006  0.51554787     0.36700
C1044       C  0.12374506  0.16408001  0.49413566     0.40400
C1045       C  0.20380484  0.22059349  0.47543286     0.39500
C1046       C  0.13727725  0.13847199  0.52995116     0.36400
C1047       C  0.18193369  0.16822507  0.58793906     0.37100
C1048       C  0.19881011  0.10883891  0.51596217     0.40300
N1049       N  0.21748649  0.23690866  0.46402622    -0.37700
N1050       N  0.23548462  0.20313764  0.52063852    -0.39300
N1051       N  0.10484963  0.15790214  0.49125723    -0.37100
N1052       N  0.12392944  0.12154040  0.54035359    -0.39400
N1053       N  0.18433971  0.13731771  0.46058559    -0.39200
N1054       N  0.20218797  0.09692808  0.50109799    -0.36800
N1055       N  0.19715725  0.14052114  0.64405546    -0.37900
N1056       N  0.17874155  0.18051018  0.60220326    -0.39600
C1057       C  0.17495385  0.32530405  0.37965974    -0.04500
C1058       C  0.17534170  0.32855152  0.34761856     0.09700
C1059       C  0.17044172  0.31050668  0.32769191    -0.01900
C1060       C  0.16472732  0.28927470  0.33965021    -0.00100
C1061       C  0.16389128  0.28583185  0.37180206    -0.03800
C1062       C  0.16911376  0.30404786  0.39171529     0.03300
C1063       C  0.18064424  0.35092219  0.33479482     0.10100
C1064       C  0.17148546  0.31390081  0.29474892     0.36000
C1065       C  0.16733574  0.30070613  0.42468140     0.39400
C1066       C  0.20299312  0.36873540  0.33338612    -0.04100
C1067       C  0.20800827  0.38973367  0.32126371     0.03000
C1068       C  0.19064894  0.39319287  0.31017486    -0.03700
C1069       C  0.16822303  0.37514001  0.31141513     0.00000
C1070       C  0.16329528  0.35423556  0.32384619    -0.02500
C1071       C  0.22090119  0.36534229  0.34431063     0.36700
C1072       C  0.14998556  0.37809287  0.30076116     0.40400
C1073       C  0.23124389  0.40749681  0.31940966     0.39500
C1074       C  0.14023595  0.33611274  0.32587860     0.36400
C1075       C  0.18040011  0.34387838  0.40025959     0.37100
C1076       C  0.16014693  0.27109375  0.31868994     0.40300
N1077       N  0.24979916  0.42162243  0.31797899    -0.37700
N1078       N  0.23514067  0.36260111  0.35312455    -0.39300
N1079       N  0.13539681  0.38037237  0.29221149    -0.37100
N1080       N  0.12186004  0.32162599  0.32757963    -0.39400
N1081       N  0.17233501  0.31664474  0.26847928    -0.39200
N1082       N  0.15647704  0.25658876  0.30197489    -0.36800
N1083       N  0.16576633  0.29799619  0.45097448    -0.37900
N1084       N  0.18490942  0.35876190  0.41665507    -0.39600
C1085       C  0.15483434  0.62617864  0.65588648    -0.04500
C1086       C  0.15000994  0.64196545  0.64288623     0.09700
C1087       C  0.14019393  0.63803545  0.61349924    -0.01900
C1088       C  0.13599452  0.61878132  0.59667707    -0.00100
C1089       C  0.14132942  0.60322048  0.60939652    -0.03800
C1090       C  0.15047519  0.60686559  0.63928436     0.03300
C1091       C  0.15688829  0.66339976  0.65964549     0.10100
C1092       C  0.13421360  0.65370677  0.60082138     0.36000
C1093       C  0.15617368  0.59114734  0.65264708     0.39400
C1094       C  0.17794805  0.68235918  0.65332552    -0.04100
C1095       C  0.18665554  0.70121247  0.67279570     0.03000
C1096       C  0.17424430  0.70130486  0.69859385    -0.03700
C1097       C  0.15249539  0.68290913  0.70371409     0.00000
C1098       C  0.14385968  0.66398528  0.68426659    -0.02500
C1099       C  0.19110424  0.68200634  0.62753347     0.36700
C1100       C  0.13972512  0.68265621  0.73037042     0.40400
C1101       C  0.20862569  0.72037348  0.66658584     0.39500
C1102       C  0.12203183  0.64464390  0.69042039     0.36400
C1103       C  0.16459655  0.63003255  0.68633791     0.37100
C1104       C  0.12553129  0.61463329  0.56670847     0.40300
N1105       N  0.22615539  0.73563647  0.66162765    -0.37700
N1106       N  0.20153942  0.68167220  0.60691984    -0.39300
N1107       N  0.12962983  0.68245955  0.75173874    -0.37100
N1108       N  0.10463580  0.62919245  0.69539962    -0.39400
N1109       N  0.12931732  0.66615014  0.59078949    -0.39200
N1110       N  0.11712425  0.61126634  0.54283110    -0.36800
N1111       N  0.16073917  0.57863863  0.66332989    -0.37900
N1112       N  0.17230035  0.63317626  0.71066646    -0.39600
C1113       C  0.15205508  0.50601156  0.43520144    -0.04500
C1114       C  0.17539843  0.51508012  0.43245129     0.09700
C1115       C  0.18990717  0.53151645  0.45356403    -0.01900
C1116       C  0.18107187  0.53844206  0.47780088    -0.00100
C1117       C  0.15759372  0.52901948  0.48093379    -0.03800
C1118       C  0.14319811  0.51302591  0.45911509     0.03300
C1119       C  0.18450791  0.50749612  0.40672913     0.10100
C1120       C  0.21393774  0.54110834  0.45042081     0.36000
C1121       C  0.11916472  0.50405428  0.46072428     0.39400
C1122       C  0.19291177  0.52061442  0.37994429    -0.04100
C1123       C  0.19958902  0.51257035  0.35454308     0.03000
C1124       C  0.19716990  0.49100878  0.35546093    -0.03700
C1125       C  0.18944716  0.47822030  0.38262132     0.00000
C1126       C  0.18330040  0.48649489  0.40824102    -0.02500
C1127       C  0.19374751  0.54199006  0.37816926     0.36700
C1128       C  0.18800789  0.45654457  0.38419617     0.40400
C1129       C  0.20811206  0.52616425  0.32713455     0.39500
C1130       C  0.17525163  0.47317388  0.43595919     0.36400
C1131       C  0.13708181  0.48940696  0.41323736     0.37100
C1132       C  0.19618765  0.55461554  0.50004596     0.40300
N1133       N  0.21496594  0.53720618  0.30542011    -0.37700
N1134       N  0.19424890  0.55896983  0.37697222    -0.39300
N1135       N  0.18697225  0.43930776  0.38519637    -0.37100
N1136       N  0.16879620  0.46245650  0.45800397    -0.39400
N1137       N  0.23310556  0.54879619  0.44772505    -0.39200
N1138       N  0.20837232  0.56751965  0.51770733    -0.36800
N1139       N  0.09999973  0.49687118  0.46199968    -0.37900
N1140       N  0.12513262  0.47610632  0.39579933    -0.39600
C1141       C  0.83999505  0.32479641  0.32612460    -0.04500
C1142       C  0.84616921  0.34661755  0.31635055     0.09700
C1143       C  0.84501132  0.35063774  0.28485340    -0.01900
C1144       C  0.83598197  0.33266038  0.26366510    -0.00100
C1145       C  0.82889874  0.31055808  0.27361200    -0.03800
C1146       C  0.83186319  0.30693090  0.30478599     0.03300
C1147       C  0.85222944  0.36500080  0.33949273     0.10100
C1148       C  0.85288519  0.37330870  0.27435721     0.36000
C1149       C  0.82552106  0.28462555  0.31535161     0.39400
C1150       C  0.87482286  0.38027468  0.34669738    -0.04100
C1151       C  0.88030871  0.39791979  0.36779550     0.03000
C1152       C  0.86318114  0.40041662  0.38202343    -0.03700
C1153       C  0.84051968  0.38473376  0.37519187     0.00000
C1154       C  0.83512381  0.36715034  0.35410121    -0.02500
C1155       C  0.89240499  0.37768625  0.33247337     0.36700
C1156       C  0.82265068  0.38716714  0.38877558     0.40400
C1157       C  0.90362260  0.41315031  0.37539258     0.39500
C1158       C  0.81185776  0.35125634  0.34712053     0.36400
C1159       C  0.84131103  0.32064829  0.35843862     0.37100
C1160       C  0.83401216  0.33698833  0.23157153     0.40300
N1161       N  0.92222809  0.42526670  0.38146901    -0.37700
N1162       N  0.90640650  0.37555404  0.32115335    -0.39300
N1163       N  0.80838041  0.38911259  0.39955728    -0.37100
N1164       N  0.79332841  0.33848563  0.34153883    -0.39400
N1165       N  0.85938997  0.39143790  0.26598200    -0.39200
N1166       N  0.83234502  0.34043101  0.20600744    -0.36800
N1167       N  0.82057250  0.26685362  0.32379280    -0.37900
N1168       N  0.84224802  0.31740281  0.38428526    -0.39600
C1169       C  0.98324069  0.51370331  0.49363053    -0.04500
C1170       C  0.99177706  0.49898382  0.49542069     0.09700
C1171       C  0.97828317  0.47648903  0.48612319    -0.01900
C1172       C  0.95636646  0.46869558  0.47510122    -0.00100
C1173       C  0.94789858  0.48351980  0.47257097    -0.03800
C1174       C  0.96153554  0.50613226  0.48179690     0.03300
C1175       C  0.01506885  0.50705439  0.50697991     0.10100
C1176       C  0.98701734  0.46132430  0.48810572     0.36000
C1177       C  0.95297981  0.52146685  0.48027276     0.39400
C1178       C  0.01894704  0.50616597  0.53856576    -0.04100
C1179       C  0.04061453  0.51227983  0.54922674     0.03000
C1180       C  0.05880475  0.51995752  0.52838942    -0.03700
C1181       C  0.05486164  0.52124496  0.49671504     0.00000
C1182       C  0.03307251  0.51463057  0.48611954    -0.02500
C1183       C  0.00055337  0.49907270  0.56010374     0.36700
C1184       C  0.07301692  0.52872640  0.47466908     0.40400
C1185       C  0.04415770  0.51111930  0.58180841     0.39500
C1186       C  0.02904535  0.51538786  0.45358943     0.36400
C1187       C  0.99663060  0.53650834  0.50472298     0.37100
C1188       C  0.94272893  0.44543837  0.46588989     0.40300
N1189       N  0.04691963  0.51008717  0.60780113    -0.37700
N1190       N  0.98586241  0.49355454  0.57722760    -0.39300
N1191       N  0.08743434  0.53476591  0.45696679    -0.37100
N1192       N  0.02577554  0.51591882  0.42765440    -0.39400
N1193       N  0.99406870  0.44929791  0.48971960    -0.39200
N1194       N  0.93183737  0.42684793  0.45873914    -0.36800
N1195       N  0.94616878  0.53371183  0.47902812    -0.37900
N1196       N  0.00720155  0.55463266  0.51388710    -0.39600
C1197       C  0.47063009  0.29800819  0.30498241    -0.04500
C1198       C  0.49337612  0.31325463  0.31107580     0.09700
C1199       C  0.51009566  0.31039908  0.29667609    -0.01900
C1200       C  0.50409890  0.29155998  0.27779524    -0.00100
C1201       C  0.48124088  0.27511511  0.27383939    -0.03800
C1202       C  0.46452846  0.27882408  0.28685377     0.03300
C1203       C  0.49980047  0.33157787  0.33416508     0.10100
C1204       C  0.53352067  0.32680989  0.30171096     0.36000
C1205       C  0.44098009  0.26308161  0.28131866     0.39400
C1206       C  0.50298009  0.32784914  0.36509458    -0.04100
C1207       C  0.51048027  0.34539884  0.38669681     0.03000
C1208       C  0.51473903  0.36683473  0.37752249    -0.03700
C1209       C  0.51084680  0.37032660  0.34673103     0.00000
C1210       C  0.50333743  0.35270722  0.32515308    -0.02500
C1211       C  0.49846248  0.30584932  0.37465450     0.36700
C1212       C  0.51559060  0.39232004  0.33686673     0.40400
C1213       C  0.51338894  0.34121970  0.41853248     0.39500
C1214       C  0.49938512  0.35628916  0.29357470     0.36400
C1215       C  0.45354195  0.30221780  0.31726994     0.37100
C1216       C  0.52157965  0.28883428  0.26349389     0.40300
N1217       N  0.51570280  0.33791081  0.44391678    -0.37700
N1218       N  0.49476843  0.28827435  0.38225815    -0.39300
N1219       N  0.51947335  0.40991098  0.32903985    -0.37100
N1220       N  0.49611136  0.35906681  0.26838132    -0.39400
N1221       N  0.55217191  0.33999659  0.30575906    -0.39200
N1222       N  0.53560474  0.28683736  0.25197122    -0.36800
N1223       N  0.42219591  0.25050277  0.27696551    -0.37900
N1224       N  0.43995497  0.30577666  0.32673039    -0.39600
C1225       C  0.53184641  0.16821509  0.07878628    -0.04500
C1226       C  0.52012325  0.17969859  0.07286339     0.09700
C1227       C  0.51654286  0.18371571  0.04224553    -0.01900
C1228       C  0.52302080  0.17480830  0.01776539    -0.00100
C1229       C  0.53342050  0.16204199  0.02369335    -0.03800
C1230       C  0.53855943  0.15947070  0.05424170     0.03300
C1231       C  0.51005153  0.18611363  0.09871052     0.10100
C1232       C  0.50590799  0.19683075  0.03602189     0.36000
C1233       C  0.54987753  0.14703363  0.06058023     0.39400
C1234       C  0.52363891  0.20433596  0.11811747    -0.04100
C1235       C  0.51406534  0.20956653  0.14320442     0.03000
C1236       C  0.49059495  0.19731149  0.14817119    -0.03700
C1237       C  0.47693112  0.17952647  0.12794956     0.00000
C1238       C  0.48667624  0.17374691  0.10372598    -0.02500
C1239       C  0.54749043  0.21776342  0.11211722     0.36700
C1240       C  0.45274007  0.16734269  0.13153148     0.40400
C1241       C  0.52862422  0.22673613  0.16484311     0.39500
C1242       C  0.47260988  0.15492128  0.08389169     0.36400
C1243       C  0.53654618  0.16497970  0.11018726     0.37100
C1244       C  0.51920511  0.17901400  0.98635933     0.40300
N1245       N  0.54025093  0.24025321  0.18228215    -0.37700
N1246       N  0.56650835  0.22851294  0.10721858    -0.39300
N1247       N  0.43343748  0.15760601  0.13427666    -0.37100
N1248       N  0.46146232  0.13997762  0.06796713    -0.39400
N1249       N  0.49741117  0.20729234  0.03116229    -0.39200
N1250       N  0.51624715  0.18240775  0.96129773    -0.36800
N1251       N  0.55898342  0.13720425  0.06581169    -0.37900
N1252       N  0.54045946  0.16260648  0.13525147    -0.39600
C1253       C  0.17827270  0.01323819  0.99295465    -0.04500
C1254       C  0.17748572  0.00777717  0.02427051     0.09700
C1255       C  0.17166675  0.98581093  0.03274898    -0.01900
C1256       C  0.16552245  0.96905041  0.01000812    -0.00100
C1257       C  0.16546733  0.97433982  0.97864794    -0.03800
C1258       C  0.17244875  0.99667064  0.97024719     0.03300
C1259       C  0.18254999  0.02547136  0.04790734     0.10100
C1260       C  0.17181479  0.98051050  0.06488446     0.36000
C1261       C  0.17403754  0.00275447  0.93808953     0.39400
C1262       C  0.16549537  0.02962271  0.05782954    -0.04100
C1263       C  0.17100424  0.04940473  0.07425922     0.03000
C1264       C  0.19371213  0.06515454  0.08079174    -0.03700
C1265       C  0.21042271  0.05968936  0.07359511     0.00000
C1266       C  0.20485670  0.04000170  0.05702475    -0.02500
C1267       C  0.14237233  0.01395359  0.04980339     0.36700
C1268       C  0.23343351  0.07436296  0.08317131     0.40400
C1269       C  0.15337469  0.05402031  0.08265974     0.39500
C1270       C  0.22221015  0.03509877  0.04820122     0.36400
C1271       C  0.18494417  0.03601141  0.98416479     0.37100
C1272       C  0.15824764  0.94621507  0.01905071     0.40300
N1273       N  0.13920572  0.05756074  0.08934081    -0.37700
N1274       N  0.12395406  0.00137700  0.04337543    -0.39300
N1275       N  0.25175422  0.08607543  0.09091683    -0.37100
N1276       N  0.23604207  0.03116151  0.04115436    -0.39400
N1277       N  0.17207487  0.97639047  0.09055426    -0.39200
N1278       N  0.15237466  0.92798339  0.02634095    -0.36800
N1279       N  0.17537122  0.00759036  0.91244256    -0.37900
N1280       N  0.19027626  0.05420108  0.97734042    -0.39600
C1281       C  0.17358216  0.14200494  0.24715033    -0.04500
C1282       C  0.17582314  0.16342579  0.24944936     0.09700
C1283       C  0.18532418  0.17855827  0.22482489    -0.01900
C1284       C  0.19265809  0.17249342  0.19810435    -0.00100
C1285       C  0.19062861  0.15102458  0.19563441    -0.03800
C1286       C  0.18094539  0.13581953  0.22047369     0.03300
C1287       C  0.16843379  0.17033980  0.27790568     0.10100
C1288       C  0.18752680  0.20057103  0.22699391     0.36000
C1289       C  0.17892321  0.11385995  0.21922212     0.39400
C1290       C  0.18199334  0.17711447  0.30439061    -0.04100
C1291       C  0.17610665  0.18552571  0.33021536     0.03000
C1292       C  0.15666375  0.18762506  0.32965584    -0.03700
C1293       C  0.14278461  0.18019190  0.30325802     0.00000
C1294       C  0.14853250  0.17138300  0.27774543    -0.02500
C1295       C  0.20224455  0.17564799  0.30488429     0.36700
C1296       C  0.12304479  0.18248739  0.30150465     0.40400
C1297       C  0.18996661  0.19157603  0.35750407     0.39500
C1298       C  0.13407562  0.16356441  0.25102927     0.36400
C1299       C  0.16365773  0.12633807  0.27232484     0.37100
C1300       C  0.20170985  0.18831920  0.17295362     0.40300
N1301       N  0.20106618  0.19635670  0.37924899    -0.37700
N1302       N  0.21831716  0.17436438  0.30523131    -0.39300
N1303       N  0.10733768  0.18436224  0.30003164    -0.37100
N1304       N  0.12254164  0.15728754  0.22969297    -0.39400
N1305       N  0.18915602  0.21803122  0.22867989    -0.39200
N1306       N  0.20896792  0.20101259  0.15289965    -0.36800
N1307       N  0.17722431  0.09634553  0.21832396    -0.37900
N1308       N  0.15578004  0.11383137  0.29247907    -0.39600
C1309       C  0.31156120  0.16886147  0.17975538    -0.04500
C1310       C  0.32804149  0.17100212  0.15867275     0.09700
C1311       C  0.32270258  0.16691242  0.12718137    -0.01900
C1312       C  0.30085018  0.16044562  0.11688258    -0.00100
C1313       C  0.28410736  0.15764891  0.13818335    -0.03800
C1314       C  0.28972540  0.16224245  0.16962536     0.03300
C1315       C  0.35103705  0.17760563  0.17000621     0.10100
C1316       C  0.33966484  0.16910878  0.10549203     0.36000
C1317       C  0.27324386  0.16091346  0.19157139     0.39400
C1318       C  0.35642708  0.16102164  0.17747205    -0.04100
C1319       C  0.37752671  0.16709720  0.19028966     0.03000
C1320       C  0.39377748  0.18997276  0.19478733    -0.03700
C1321       C  0.38816058  0.20655245  0.18739476     0.00000
C1322       C  0.36679418  0.20032494  0.17550422    -0.02500
C1323       C  0.33998192  0.13761681  0.17241092     0.36700
C1324       C  0.40390297  0.23004523  0.19330170     0.40400
C1325       C  0.38235709  0.14966210  0.19871082     0.39500
C1326       C  0.36063004  0.21723489  0.16991654     0.36400
C1327       C  0.31717104  0.17347913  0.21203093     0.37100
C1328       C  0.29552287  0.15611247  0.08450215     0.40300
N1329       N  0.38600763  0.13566102  0.20570600    -0.37700
N1330       N  0.32679217  0.11897748  0.16829210    -0.39300
N1331       N  0.41639589  0.24880412  0.19798460    -0.37100
N1332       N  0.35552208  0.23061179  0.16582623    -0.39400
N1333       N  0.35317856  0.17077514  0.08820186    -0.39200
N1334       N  0.29132815  0.15275507  0.05864437    -0.36800
N1335       N  0.26009873  0.15991319  0.20902108    -0.37900
N1336       N  0.32178848  0.17725317  0.23771771    -0.39600
C1337       C  0.80826967  0.48893569  0.82877655    -0.04500
C1338       C  0.83165120  0.49944089  0.83271796     0.09700
C1339       C  0.84587090  0.51892504  0.81591689    -0.01900
C1340       C  0.83688709  0.52719777  0.79388045    -0.00100
C1341       C  0.81339623  0.51618845  0.78887328    -0.03800
C1342       C  0.79912333  0.49732762  0.80722505     0.03300
C1343       C  0.84136492  0.48847386  0.85193866     0.10100
C1344       C  0.86989682  0.53000927  0.82073621     0.36000
C1345       C  0.77493318  0.48637989  0.80415565     0.39400
C1346       C  0.84678561  0.47337208  0.83802295    -0.04100
C1347       C  0.85491778  0.46197868  0.85583250     0.03000
C1348       C  0.85794676  0.46574206  0.88796997    -0.03700
C1349       C  0.85285934  0.48131165  0.90174395     0.00000
C1350       C  0.84464868  0.49263510  0.88372592    -0.02500
C1351       C  0.84374381  0.46943304  0.80516512     0.36700
C1352       C  0.85643982  0.48612741  0.93432918     0.40400
C1353       C  0.85916432  0.44565763  0.84091862     0.39500
C1354       C  0.83970368  0.50872767  0.89776886     0.36400
C1355       C  0.79363983  0.46900082  0.84635438     0.37100
C1356       C  0.85211064  0.54625552  0.77528684     0.40300
N1357       N  0.86247228  0.43264912  0.82884234    -0.37700
N1358       N  0.84133854  0.46643889  0.77895785    -0.39300
N1359       N  0.85924730  0.48999974  0.96032946    -0.37100
N1360       N  0.83583499  0.52163924  0.90892739    -0.39400
N1361       N  0.88903933  0.53878839  0.82473232    -0.39200
N1362       N  0.86436867  0.56141678  0.76046488    -0.36800
N1363       N  0.75564976  0.47759537  0.80167603    -0.37900
N1364       N  0.78198577  0.45307978  0.86033465    -0.39600
C1365       C  0.84907887  0.49245031  0.56406594    -0.04500
C1366       C  0.82647748  0.47754730  0.57162603     0.09700
C1367       C  0.81428144  0.45740408  0.55500040    -0.01900
C1368       C  0.82445609  0.45242543  0.53032337    -0.00100
C1369       C  0.84709346  0.46751059  0.52234650    -0.03800
C1370       C  0.85941029  0.48742182  0.53980683     0.03300
C1371       C  0.81532327  0.48401288  0.59588784     0.10100
C1372       C  0.79100800  0.44217105  0.56279863     0.36000
C1373       C  0.88283508  0.50292409  0.53295828     0.39400
C1374       C  0.80386404  0.49533431  0.58756707    -0.04100
C1375       C  0.79559822  0.50384994  0.61041010     0.03000
C1376       C  0.79939172  0.50171355  0.64170349    -0.03700
C1377       C  0.81018355  0.48970449  0.65006057     0.00000
C1378       C  0.81772908  0.48050549  0.62719972    -0.02500
C1379       C  0.80128124  0.49885407  0.55539538     0.36700
C1380       C  0.81353961  0.48684925  0.68224960     0.40400
C1381       C  0.78415463  0.51574956  0.60165492     0.39500
C1382       C  0.82806667  0.46752031  0.63581832     0.36400
C1383       C  0.86151437  0.51342533  0.58070254     0.37100
C1384       C  0.81110290  0.43249322  0.51203371     0.40300
N1385       N  0.77494796  0.52517342  0.59465260    -0.37700
N1386       N  0.79932067  0.50165069  0.52968575    -0.39300
N1387       N  0.81621905  0.48467560  0.70794206    -0.37100
N1388       N  0.83610931  0.45697289  0.64275488    -0.39400
N1389       N  0.77242752  0.43012076  0.56909935    -0.39200
N1390       N  0.80031553  0.41664433  0.49737511    -0.36800
N1391       N  0.90148125  0.51534568  0.52745240    -0.37900
N1392       N  0.87136012  0.53019700  0.59386625    -0.39600
C1393       C  0.83874359  0.82128842  0.48911224    -0.04500
C1394       C  0.83616702  0.83937175  0.49870813     0.09700
C1395       C  0.83846367  0.84541004  0.52997506    -0.01900
C1396       C  0.84358349  0.83356809  0.55160338    -0.00100
C1397       C  0.84658637  0.81565654  0.54202667    -0.03800
C1398       C  0.84360268  0.80919864  0.51078952     0.03300
C1399       C  0.82963710  0.85134537  0.47630719     0.10100
C1400       C  0.83549252  0.86384663  0.53983771     0.36000
C1401       C  0.84587091  0.79039009  0.50079052     0.39400
C1402       C  0.80683888  0.84470785  0.47286747    -0.04100
C1403       C  0.80055893  0.85717506  0.45407727     0.03000
C1404       C  0.81713684  0.87651032  0.43875544    -0.03700
C1405       C  0.83997131  0.88277997  0.44161280     0.00000
C1406       C  0.84617004  0.87012401  0.46024315    -0.02500
C1407       C  0.78991508  0.82530906  0.48941054     0.36700
C1408       C  0.85722823  0.90308037  0.42711190     0.40400
C1409       C  0.77698616  0.84999820  0.45054988     0.39500
C1410       C  0.86960725  0.87679605  0.46370182     0.36400
C1411       C  0.83668131  0.81538813  0.45684209     0.37100
C1412       C  0.84479523  0.83924881  0.58392947     0.40300
N1413       N  0.75817231  0.84422900  0.44783322    -0.37700
N1414       N  0.77654985  0.80987203  0.50278659    -0.39300
N1415       N  0.87094210  0.91936496  0.41567506    -0.37100
N1416       N  0.88831350  0.88212972  0.46640663    -0.39400
N1417       N  0.83310828  0.87854612  0.54763155    -0.39200
N1418       N  0.84556724  0.84368693  0.60970137    -0.36800
N1419       N  0.84747588  0.77525781  0.49283080    -0.37900
N1420       N  0.83518871  0.81083306  0.43104202    -0.39600
C1421       C  0.83438301  0.81331471  0.73401925    -0.04500
C1422       C  0.84538814  0.83687027  0.73695942     0.09700
C1423       C  0.86221383  0.85040771  0.71564204    -0.01900
C1424       C  0.86757966  0.84049501  0.69109627    -0.00100
C1425       C  0.85684885  0.81688074  0.68842674    -0.03800
C1426       C  0.84025644  0.80336690  0.71016987     0.03300
C1427       C  0.83882586  0.84715436  0.76240997     0.10100
C1428       C  0.87398357  0.87457902  0.71898851     0.36000
C1429       C  0.82940056  0.77913363  0.70846387     0.39400
C1430       C  0.84375339  0.84485800  0.79318767    -0.04100
C1431       C  0.83471680  0.85141707  0.81742327     0.03000
C1432       C  0.82094719  0.86061841  0.81107471    -0.03700
C1433       C  0.81706134  0.86413957  0.78037685     0.00000
C1434       C  0.82608482  0.85754430  0.75608349    -0.02500
C1435       C  0.85779023  0.83531118  0.79989757     0.36700
C1436       C  0.80266136  0.87327735  0.77376515     0.40400
C1437       C  0.83942651  0.84852078  0.84900956     0.39500
C1438       C  0.82182854  0.86100639  0.72457155     0.36400
C1439       C  0.81684968  0.79924256  0.75558768     0.37100
C1440       C  0.88318840  0.85469507  0.66764267     0.40300
N1441       N  0.84312622  0.84622137  0.87421342    -0.37700
N1442       N  0.86890974  0.82760806  0.80525468    -0.39300
N1443       N  0.79108039  0.88045591  0.76843763    -0.37100
N1444       N  0.81869674  0.86406661  0.69943785    -0.39400
N1445       N  0.88331269  0.89386074  0.72169048    -0.39200
N1446       N  0.89542990  0.86607014  0.64877834    -0.36800
N1447       N  0.82072945  0.75980750  0.70716056    -0.37900
N1448       N  0.80297760  0.78808367  0.77292831    -0.39600
C1449       C  0.81131246  0.67934714  0.64968356    -0.04500
C1450       C  0.82613248  0.67106499  0.65327223     0.09700
C1451       C  0.84913889  0.68508015  0.64712626    -0.01900
C1452       C  0.85744759  0.70743007  0.63788787    -0.00100
C1453       C  0.84274721  0.71601924  0.63471371    -0.03800
C1454       C  0.81952375  0.70168826  0.64015081     0.03300
C1455       C  0.81766525  0.64739156  0.66302413     0.10100
C1456       C  0.86422186  0.67628415  0.65005889     0.36000
C1457       C  0.80402430  0.70989760  0.63642218     0.39400
C1458       C  0.81258059  0.63064685  0.64076367    -0.04100
C1459       C  0.80635779  0.60867065  0.64984452     0.03000
C1460       C  0.80548752  0.60338012  0.68137758    -0.03700
C1461       C  0.81041152  0.62022203  0.70363677     0.00000
C1462       C  0.81641418  0.64209975  0.69445116    -0.02500
C1463       C  0.81451655  0.63633402  0.60843640     0.36700
C1464       C  0.80899710  0.61504783  0.73612270     0.40400
C1465       C  0.80191400  0.59187764  0.62658448     0.39500
C1466       C  0.82176235  0.65935044  0.71734828     0.36400
C1467       C  0.78762016  0.66482889  0.65590602     0.37100
C1468       C  0.88102511  0.72119365  0.63028992     0.40300
N1469       N  0.79845397  0.57859644  0.60787621    -0.37700
N1470       N  0.81626017  0.64103208  0.58270410    -0.39300
N1471       N  0.80794320  0.61089648  0.76200130    -0.37100
N1472       N  0.82605186  0.67308230  0.73567375    -0.39400
N1473       N  0.87607962  0.66907350  0.65235010    -0.39200
N1474       N  0.89982219  0.73206479  0.62409723    -0.36800
N1475       N  0.79157965  0.71633001  0.63325449    -0.37900
N1476       N  0.76872315  0.65324014  0.66093610    -0.39600
C1477       C  0.00261106  0.18167254  0.99235031    -0.04500
C1478       C  0.99924169  0.16279995  0.00919903     0.09700
C1479       C  0.01452125  0.15505152  0.00600941    -0.01900
C1480       C  0.03238308  0.16531405  0.98489211    -0.00100
C1481       C  0.03495403  0.18327645  0.96629189    -0.03800
C1482       C  0.02037853  0.19191294  0.97095682     0.03300
C1483       C  0.97822141  0.14950744  0.02755288     0.10100
C1484       C  0.01127621  0.13583725  0.02359555     0.36000
C1485       C  0.02268991  0.21046569  0.95264321     0.39400
C1486       C  0.95810900  0.13484594  0.01219975    -0.04100
C1487       C  0.93825688  0.12170362  0.02894748     0.03000
C1488       C  0.93804969  0.12369104  0.06131185    -0.03700
C1489       C  0.95838594  0.13802319  0.07678072     0.00000
C1490       C  0.97842298  0.15076893  0.05990665    -0.02500
C1491       C  0.95791701  0.13313121  0.97896957     0.36700
C1492       C  0.95875626  0.14005764  0.10994174     0.40400
C1493       C  0.91831349  0.10524731  0.01278877     0.39500
C1494       C  0.99929634  0.16519222  0.07575595     0.36400
C1495       C  0.98711074  0.18990501  0.99617085     0.37100
C1496       C  0.04804098  0.15717274  0.98236475     0.40300
N1497       N  0.90246917  0.09198554  0.99997926    -0.37700
N1498       N  0.95777268  0.13189205  0.95246987    -0.39300
N1499       N  0.95915268  0.14169265  0.13641021    -0.37100
N1500       N  0.01600315  0.17657730  0.08836877    -0.39400
N1501       N  0.00868449  0.12051076  0.03762604    -0.39200
N1502       N  0.06044632  0.15058628  0.98035519    -0.36800
N1503       N  0.02442137  0.22526271  0.93811711    -0.37900
N1504       N  0.97463709  0.19632997  0.99920214    -0.39600
C1505       C  0.14357209  0.18414953  0.98481875    -0.04500
C1506       C  0.15794079  0.17821398  0.96976949     0.09700
C1507       C  0.15812121  0.17751201  0.93736762    -0.01900
C1508       C  0.14389340  0.18264513  0.92011591    -0.00100
C1509       C  0.12956801  0.18879672  0.93524002    -0.03800
C1510       C  0.12957435  0.18948906  0.96779377     0.03300
C1511       C  0.17151865  0.17122991  0.98874514     0.10100
C1512       C  0.17292797  0.17143138  0.92188785     0.36000
C1513       C  0.11452020  0.19484967  0.98418724     0.39400
C1514       C  0.16328308  0.14829777  0.99429099    -0.04100
C1515       C  0.17337066  0.14155127  0.01672558     0.03000
C1516       C  0.19133779  0.15770847  0.03475949    -0.03700
C1517       C  0.20036850  0.18072508  0.02798884     0.00000
C1518       C  0.19067043  0.18739248  0.00473296    -0.02500
C1519       C  0.14372388  0.13161406  0.97777640     0.36700
C1520       C  0.21870191  0.19767310  0.04608166     0.40400
C1521       C  0.16528652  0.11785850  0.02097957     0.39500
C1522       C  0.19988248  0.21095542  0.99786504     0.36400
C1523       C  0.14274759  0.18412727  0.01813082     0.37100
C1524       C  0.14441204  0.18201144  0.88687279     0.40300
N1525       N  0.15894978  0.09898512  0.02432084    -0.37700
N1526       N  0.12808282  0.11836895  0.96460332    -0.39300
N1527       N  0.23325708  0.21126787  0.06055096    -0.37100
N1528       N  0.20726019  0.22974132  0.99226706    -0.39400
N1529       N  0.18474036  0.16654000  0.90959715    -0.39200
N1530       N  0.14487096  0.18143613  0.86033912    -0.36800
N1531       N  0.10259371  0.19916323  0.99736461    -0.37900
N1532       N  0.14213096  0.18403543  0.04467706    -0.39600
C1533       C  0.37685709  0.50735636  0.64619528    -0.04500
C1534       C  0.36008347  0.51310616  0.64962411     0.09700
C1535       C  0.36116192  0.53072505  0.63203598    -0.01900
C1536       C  0.37962499  0.54344667  0.61243882    -0.00100
C1537       C  0.39737419  0.53874848  0.61046898    -0.03800
C1538       C  0.39554460  0.52020864  0.62703361     0.03300
C1539       C  0.34173380  0.50125709  0.67280650     0.10100
C1540       C  0.34326073  0.53586899  0.63441788     0.36000
C1541       C  0.41274223  0.51408449  0.62435944     0.39400
C1542       C  0.34489985  0.50919777  0.70328558    -0.04100
C1543       C  0.32724596  0.49906054  0.72478300     0.03000
C1544       C  0.30612706  0.48086266  0.71593690    -0.03700
C1545       C  0.30343789  0.47217709  0.68575266     0.00000
C1546       C  0.32119811  0.48238661  0.66432159    -0.02500
C1547       C  0.36644187  0.52785161  0.71251261     0.36700
C1548       C  0.28223273  0.45322108  0.67623642     0.40400
C1549       C  0.33112619  0.50703831  0.75629322     0.39500
C1550       C  0.31841852  0.47361070  0.63337265     0.36400
C1551       C  0.37470008  0.48803027  0.66234612     0.37100
C1552       C  0.38064066  0.56196998  0.59546587     0.40300
N1553       N  0.33424957  0.51334063  0.78143649    -0.37700
N1554       N  0.38365464  0.54265753  0.71989408    -0.39300
N1555       N  0.26537649  0.43804742  0.66851529    -0.37100
N1556       N  0.31638243  0.46666052  0.60866375    -0.39400
N1557       N  0.32890305  0.53986258  0.63624973    -0.39200
N1558       N  0.38137226  0.57670266  0.58189382    -0.36800
N1559       N  0.42645475  0.50918080  0.62241467    -0.37900
N1560       N  0.37275004  0.47244966  0.67502899    -0.39600
C1561       C  0.17818319  0.46735185  0.69331386    -0.04500
C1562       C  0.18390489  0.49001047  0.69251638     0.09700
C1563       C  0.20055272  0.50553891  0.71246129    -0.01900
C1564       C  0.21229736  0.49873321  0.73204443    -0.00100
C1565       C  0.20737148  0.47616847  0.73194269    -0.03800
C1566       C  0.18969722  0.46038414  0.71306055     0.03300
C1567       C  0.17304833  0.49774666  0.66969036     0.10100
C1568       C  0.20582157  0.52868906  0.71234406     0.36000
C1569       C  0.18294511  0.43681766  0.71419705     0.39400
C1570       C  0.15206957  0.49573693  0.67603931    -0.04100
C1571       C  0.14198898  0.50321159  0.65450872     0.03000
C1572       C  0.15297219  0.51296077  0.62648173    -0.03700
C1573       C  0.17380077  0.51441505  0.61995126     0.00000
C1574       C  0.18389493  0.50714579  0.64163679    -0.02500
C1575       C  0.14123241  0.48658340  0.70523902     0.36700
C1576       C  0.18459374  0.52260577  0.59042021     0.40400
C1577       C  0.12066207  0.50147333  0.66178781     0.39500
C1578       C  0.20571366  0.50968194  0.63532215     0.36400
C1579       C  0.16059255  0.45125854  0.67339343     0.37100
C1580       C  0.23009083  0.51532256  0.75120900     0.40300
N1581       N  0.10360880  0.50001146  0.66760668    -0.37700
N1582       N  0.13271291  0.47937766  0.72864571    -0.39300
N1583       N  0.19321309  0.52894861  0.56683916    -0.37100
N1584       N  0.22320196  0.51190452  0.63040480    -0.39400
N1585       N  0.20993434  0.54712635  0.71216682    -0.39200
N1586       N  0.24426251  0.52861544  0.76648229    -0.36800
N1587       N  0.17745757  0.41799845  0.71507718    -0.37900
N1588       N  0.14653046  0.43845563  0.65751961    -0.39600
C1589       C  0.17641031  0.34883297  0.80146025    -0.04500
C1590       C  0.17287258  0.34400523  0.83310334     0.09700
C1591       C  0.18379803  0.36149947  0.85465961    -0.01900
C1592       C  0.19843554  0.38364391  0.84464407    -0.00100
C1593       C  0.20283736  0.38835967  0.81290122    -0.03800
C1594       C  0.19142333  0.37082373  0.79138121     0.03300
C1595       C  0.15742784  0.32041070  0.84352901     0.10100
C1596       C  0.18008243  0.35662958  0.88722389     0.36000
C1597       C  0.19421354  0.37551422  0.75872762     0.39400
C1598       C  0.16421671  0.30429723  0.84142972    -0.04100
C1599       C  0.14922576  0.28174636  0.84926131     0.03000
C1600       C  0.12756192  0.27526192  0.86080624    -0.03700
C1601       C  0.12094135  0.29159507  0.86323826     0.00000
C1602       C  0.13566952  0.31392518  0.85410553    -0.02500
C1603       C  0.18675390  0.31100663  0.83118656     0.36700
C1604       C  0.09859778  0.28534620  0.87381349     0.40400
C1605       C  0.15633447  0.26536005  0.84543141     0.39500
C1606       C  0.12821786  0.33016893  0.85468487     0.36400
C1607       C  0.16419633  0.33110657  0.77925585     0.37100
C1608       C  0.20907613  0.40144430  0.86719475     0.40300
N1609       N  0.16196796  0.25229912  0.84195579    -0.37700
N1610       N  0.20473604  0.31637578  0.82305321    -0.39300
N1611       N  0.08078295  0.28039793  0.88224569    -0.37100
N1612       N  0.12227705  0.34313010  0.85496656    -0.39400
N1613       N  0.17708048  0.35273884  0.91318566    -0.39200
N1614       N  0.21732930  0.41562397  0.88525891    -0.36800
N1615       N  0.19630757  0.37921733  0.73266978    -0.37900
N1616       N  0.15434853  0.31687222  0.76171160    -0.39600
C1617       C  0.68189706  0.19072053  0.83849941    -0.04500
C1618       C  0.66489335  0.16799881  0.83808591     0.09700
C1619       C  0.66663131  0.15295626  0.81778167    -0.01900
C1620       C  0.68478615  0.16081000  0.79701963    -0.00100
C1621       C  0.70152348  0.18370365  0.79690934    -0.03800
C1622       C  0.70034951  0.19845799  0.81843825     0.03300
C1623       C  0.64428855  0.16043006  0.85727315     0.10100
C1624       C  0.64924198  0.12955183  0.81748742     0.36000
C1625       C  0.71818003  0.22169902  0.81998381     0.39400
C1626       C  0.62477285  0.15831196  0.84378635    -0.04100
C1627       C  0.60536222  0.15161355  0.86165000     0.03000
C1628       C  0.60561039  0.14796504  0.89362532    -0.03700
C1629       C  0.62552630  0.15096951  0.90729778     0.00000
C1630       C  0.64458178  0.15660286  0.88901369    -0.02500
C1631       C  0.62498989  0.16382131  0.81160805     0.36700
C1632       C  0.62647635  0.14815767  0.94012586     0.40400
C1633       C  0.58545446  0.14942766  0.84711555     0.39500
C1634       C  0.66455007  0.15845801  0.90278492     0.36400
C1635       C  0.67980520  0.20638820  0.85852985     0.37100
C1636       C  0.68537834  0.14564147  0.77443608     0.40300
N1637       N  0.56961357  0.14764426  0.83537850    -0.37700
N1638       N  0.62534357  0.16843828  0.78601980    -0.39300
N1639       N  0.62733971  0.14617232  0.96637161    -0.37100
N1640       N  0.68047062  0.15986300  0.91371043    -0.39400
N1641       N  0.63534044  0.11088684  0.81717529    -0.39200
N1642       N  0.68580566  0.13361958  0.75623843    -0.36800
N1643       N  0.73246098  0.24018973  0.82118397    -0.37900
N1644       N  0.67802467  0.21890751  0.87431886    -0.39600
C1645       C  0.82727515  0.32746450  0.86993074    -0.04500
C1646       C  0.83313669  0.33002921  0.83859993     0.09700
C1647       C  0.85051446  0.35081091  0.82780465    -0.01900
C1648       C  0.86118409  0.36933369  0.84792975    -0.00100
C1649       C  0.85431755  0.36720002  0.87897751    -0.03800
C1650       C  0.83765243  0.34597493  0.89001620     0.03300
C1651       C  0.82044682  0.31094381  0.81680231     0.10100
C1652       C  0.85719385  0.35311448  0.79582638     0.36000
C1653       C  0.83139822  0.34296795  0.92222497     0.39400
C1654       C  0.80034221  0.30752906  0.80351646    -0.04100
C1655       C  0.78814110  0.28943863  0.78319608     0.03000
C1656       C  0.79565816  0.27419360  0.77667630    -0.03700
C1657       C  0.81586207  0.27770567  0.79012720     0.00000
C1658       C  0.82817326  0.29601774  0.81005367    -0.02500
C1659       C  0.79178028  0.32220419  0.81176971     0.36700
C1660       C  0.82424833  0.26266891  0.78322431     0.40400
C1661       C  0.76733979  0.28606334  0.77016590     0.39500
C1662       C  0.84853606  0.29922726  0.82434947     0.36400
C1663       C  0.81057196  0.30565196  0.88144419     0.37100
C1664       C  0.87856442  0.39074926  0.83625677     0.40300
N1665       N  0.75078063  0.28344439  0.75975010    -0.37700
N1666       N  0.78484939  0.33376837  0.81865991    -0.39300
N1667       N  0.83090991  0.25065009  0.77775564    -0.37100
N1668       N  0.86472962  0.30176564  0.83590220    -0.39400
N1669       N  0.86252662  0.35484570  0.77031918    -0.39200
N1670       N  0.89248261  0.40779917  0.82689433    -0.36800
N1671       N  0.82638833  0.34047688  0.94789599    -0.37900
N1672       N  0.79736901  0.28818683  0.89056562    -0.39600
C1673       C  0.00232516  0.15477237  0.50882587    -0.04500
C1674       C  0.01479583  0.17763962  0.50114531     0.09700
C1675       C  0.00786393  0.19242746  0.51219749    -0.01900
C1676       C  0.98890123  0.18451330  0.53161667    -0.00100
C1677       C  0.97668809  0.16161045  0.54026378    -0.03800
C1678       C  0.98335832  0.14673616  0.52805796     0.03300
C1679       C  0.03631609  0.18633040  0.48355248     0.10100
C1680       C  0.02071561  0.21597129  0.50416881     0.36000
C1681       C  0.97070333  0.12296332  0.53491074     0.39400
C1682       C  0.03622430  0.18375436  0.45139510    -0.04100
C1683       C  0.05654901  0.19101979  0.43527989     0.03000
C1684       C  0.07717935  0.20052984  0.45133295    -0.03700
C1685       C  0.07708487  0.20291746  0.48371559     0.00000
C1686       C  0.05678785  0.19589734  0.49959902    -0.02500
C1687       C  0.01508211  0.17300824  0.43501903     0.36700
C1688       C  0.09766766  0.21150838  0.50122435     0.40400
C1689       C  0.05611949  0.18896924  0.40211096     0.39500
C1690       C  0.05678479  0.19760304  0.53282117     0.36400
C1691       C  0.00946998  0.13956128  0.49750850     0.37100
C1692       C  0.98273138  0.20028573  0.54360783     0.40300
N1693       N  0.05574284  0.18733936  0.37564232    -0.37700
N1694       N  0.99819921  0.16419866  0.42198880    -0.39300
N1695       N  0.11403315  0.21830162  0.51526592    -0.37100
N1696       N  0.05666814  0.19881653  0.55931100    -0.39400
N1697       N  0.03107037  0.23475162  0.49779829    -0.39200
N1698       N  0.97791354  0.21297721  0.55308150    -0.36800
N1699       N  0.96069657  0.10401673  0.54043184    -0.37900
N1700       N  0.01523384  0.12750065  0.48843867    -0.39600
C1701       C  0.85658992  0.01166257  0.47150284    -0.04500
C1702       C  0.84473793  0.01254360  0.49732360     0.09700
C1703       C  0.82267891  0.99498859  0.50281289    -0.01900
C1704       C  0.81258201  0.97635282  0.48282582    -0.00100
C1705       C  0.82448788  0.97529354  0.45697520    -0.03800
C1706       C  0.84643938  0.99335567  0.45112677     0.03300
C1707       C  0.85550205  0.03225764  0.51850251     0.10100
C1708       C  0.81050584  0.99610363  0.52929617     0.36000
C1709       C  0.85840243  0.99369831  0.42345864     0.39400
C1710       C  0.85142938  0.05015278  0.51482920    -0.04100
C1711       C  0.86230096  0.06921745  0.53389226     0.03000
C1712       C  0.87784415  0.07078813  0.55642267    -0.03700
C1713       C  0.88127684  0.05236442  0.56063964     0.00000
C1714       C  0.87017591  0.03325205  0.54167433    -0.02500
C1715       C  0.83631117  0.04905487  0.49091257     0.36700
C1716       C  0.89675401  0.05314848  0.58374299     0.40400
C1717       C  0.85691459  0.08688919  0.53067129     0.39500
C1718       C  0.87421155  0.01471033  0.54547034     0.36400
C1719       C  0.87933389  0.02968446  0.46592178     0.37100
C1720       C  0.79019332  0.95809604  0.48948895     0.40300
N1721       N  0.85247711  0.10088555  0.52810672    -0.37700
N1722       N  0.82428338  0.04811650  0.47175981    -0.39300
N1723       N  0.90900800  0.05366082  0.60223815    -0.37100
N1724       N  0.87746660  0.99993811  0.54837735    -0.39400
N1725       N  0.80086739  0.99712306  0.55043566    -0.39200
N1726       N  0.77231637  0.94358553  0.49490194    -0.36800
N1727       N  0.86787759  0.99400180  0.40133427    -0.37900
N1728       N  0.89751035  0.04396288  0.46153279    -0.39600
C1729       C  0.01268821  0.14545519  0.77753172    -0.04500
C1730       C  0.00220519  0.15713466  0.76672171     0.09700
C1731       C  0.00726948  0.17761972  0.78048783    -0.01900
C1732       C  0.02355138  0.18703417  0.80386854    -0.00100
C1733       C  0.03449729  0.17558998  0.81469791    -0.03800
C1734       C  0.02857574  0.15447145  0.80160160     0.03300
C1735       C  0.98700399  0.14894695  0.73932584     0.10100
C1736       C  0.99565540  0.18909867  0.77035184     0.36000
C1737       C  0.03816055  0.14151441  0.81340412     0.39400
C1738       C  0.96348485  0.13760412  0.74296144    -0.04100
C1739       C  0.94942382  0.13294446  0.71712844     0.03000
C1740       C  0.95891824  0.13997541  0.68758568    -0.03700
C1741       C  0.98238912  0.15027172  0.68388025     0.00000
C1742       C  0.99634451  0.15463967  0.70960189    -0.02500
C1743       C  0.95385422  0.13140876  0.77346850     0.36700
C1744       C  0.99224205  0.15630699  0.65341853     0.40400
C1745       C  0.92534313  0.12196543  0.72118306     0.39500
C1746       C  0.02043279  0.16558098  0.70561930     0.36400
C1747       C  0.00690316  0.12402887  0.76393644     0.37100
C1748       C  0.02942573  0.20895421  0.81579816     0.40300
N1749       N  0.90610489  0.11318446  0.72448104    -0.37700
N1750       N  0.94623027  0.12655081  0.79782806    -0.39300
N1751       N  0.99998523  0.16107264  0.62911275    -0.37100
N1752       N  0.03966822  0.17425715  0.70244685    -0.39400
N1753       N  0.98617729  0.19803817  0.76239129    -0.39200
N1754       N  0.03404255  0.22645556  0.82518146    -0.36800
N1755       N  0.04566546  0.13105701  0.82284357    -0.37900
N1756       N  0.00220568  0.10691262  0.75305175    -0.39600
C1757       C  0.82789505  0.18231614  0.69780648    -0.04500
C1758       C  0.83019681  0.18117672  0.66573548     0.09700
C1759       C  0.81695148  0.18582064  0.64582644    -0.01900
C1760       C  0.80156400  0.19163541  0.65791270    -0.00100
C1761       C  0.79912552  0.19264672  0.69005100    -0.03800
C1762       C  0.81229940  0.18782051  0.70996359     0.03300
C1763       C  0.84550258  0.17357417  0.65308035     0.10100
C1764       C  0.81879331  0.18408751  0.61289908     0.36000
C1765       C  0.81022362  0.18896219  0.74295677     0.39400
C1766       C  0.83922594  0.15079557  0.65508667    -0.04100
C1767       C  0.85377491  0.14346500  0.64446038     0.03000
C1768       C  0.87504908  0.15894592  0.63197515    -0.03700
C1769       C  0.88098061  0.18173500  0.62909902     0.00000
C1770       C  0.86623861  0.18895834  0.63961786    -0.02500
C1771       C  0.81767810  0.13487112  0.66831089     0.36700
C1772       C  0.90248798  0.19800810  0.61623042     0.40400
C1773       C  0.84631006  0.11972332  0.64566298     0.39500
C1774       C  0.87255128  0.21235187  0.63704993     0.36400
C1775       C  0.84157103  0.17764758  0.71834652     0.37100
C1776       C  0.78752793  0.19563765  0.63712990     0.40300
N1777       N  0.84022663  0.10077767  0.64663345    -0.37700
N1778       N  0.80053818  0.12230807  0.67908456    -0.39300
N1779       N  0.91962347  0.21104167  0.60590367    -0.37100
N1780       N  0.87753726  0.23097858  0.63485978    -0.39400
N1781       N  0.82025551  0.18273687  0.58658904    -0.39200
N1782       N  0.77629406  0.19878700  0.62065879    -0.36800
N1783       N  0.80857580  0.18979285  0.76932680    -0.37900
N1784       N  0.85241874  0.17380673  0.73460836    -0.39600
C1785       C  0.35258107  0.83526837  0.68077998    -0.04500
C1786       C  0.33130065  0.83282598  0.67529955     0.09700
C1787       C  0.32780679  0.84204086  0.64839513    -0.01900
C1788       C  0.34539332  0.85358183  0.62717448    -0.00100
C1789       C  0.36611592  0.85449617  0.63145341    -0.03800
C1790       C  0.36973815  0.84553506  0.65856674     0.03300
C1791       C  0.31206893  0.81955263  0.69678227     0.10100
C1792       C  0.30568892  0.83858045  0.64175541     0.36000
C1793       C  0.39120025  0.84698851  0.66369465     0.39400
C1794       C  0.30265704  0.83024097  0.71389433    -0.04100
C1795       C  0.28254988  0.81738414  0.73042320     0.03000
C1796       C  0.27211149  0.79380273  0.73072349    -0.03700
C1797       C  0.28216491  0.78317452  0.71503857     0.00000
C1798       C  0.30192205  0.79597264  0.69784248    -0.02500
C1799       C  0.31339814  0.85447690  0.71381080     0.36700
C1800       C  0.27143828  0.75892049  0.71507294     0.40400
C1801       C  0.27256241  0.82840996  0.74708860     0.39500
C1802       C  0.31122991  0.78476239  0.68008455     0.36400
C1803       C  0.35667158  0.82684303  0.70902895     0.37100
C1804       C  0.34175352  0.86370591  0.60032900     0.40300
N1805       N  0.26455913  0.83718618  0.76035046    -0.37700
N1806       N  0.32191687  0.87380707  0.71357489    -0.39300
N1807       N  0.26282525  0.73958035  0.71508753    -0.37100
N1808       N  0.31867932  0.77582085  0.66597428    -0.39400
N1809       N  0.28796318  0.83560798  0.63656073    -0.39200
N1810       N  0.33880828  0.87195199  0.57913468    -0.36800
N1811       N  0.40831033  0.84811194  0.66766402    -0.37900
N1812       N  0.35994453  0.82009025  0.73152709    -0.39600
C1813       C  0.51716688  0.83693982  0.64923483    -0.04500
C1814       C  0.50046012  0.84203094  0.65759967     0.09700
C1815       C  0.49426079  0.84091377  0.68869041    -0.01900
C1816       C  0.50382569  0.83365148  0.71114221    -0.00100
C1817       C  0.51994492  0.82766487  0.70276549    -0.03800
C1818       C  0.52699902  0.82987989  0.67178424     0.03300
C1819       C  0.48820993  0.84740236  0.63387348     0.10100
C1820       C  0.47765635  0.84692962  0.69742916     0.36000
C1821       C  0.54348720  0.82379854  0.66278140     0.39400
C1822       C  0.46702472  0.83040390  0.62356886    -0.04100
C1823       C  0.45344530  0.83584101  0.60560677     0.03000
C1824       C  0.46099966  0.85840545  0.59778076    -0.03700
C1825       C  0.48270892  0.87528002  0.60694398     0.00000
C1826       C  0.49625016  0.86975837  0.62487265    -0.02500
C1827       C  0.45873390  0.80741074  0.63294086     0.36700
C1828       C  0.49104557  0.89843271  0.59832294     0.40400
C1829       C  0.43101398  0.81835815  0.59733548     0.39500
C1830       C  0.51811707  0.88720470  0.63516535     0.36400
C1831       C  0.52377219  0.83842336  0.61732455     0.37100
C1832       C  0.49709656  0.83247743  0.74299029     0.40300
N1833       N  0.41308319  0.80441382  0.59092405    -0.37700
N1834       N  0.45213468  0.78911364  0.64061273    -0.39300
N1835       N  0.49757836  0.91689055  0.59152324    -0.37100
N1836       N  0.53555469  0.90114860  0.64337178    -0.39400
N1837       N  0.46441252  0.85176684  0.70417902    -0.39200
N1838       N  0.49169532  0.83149360  0.76837431    -0.36800
N1839       N  0.55663418  0.81892681  0.65560481    -0.37900
N1840       N  0.52905939  0.83961418  0.59185522    -0.39600
C1841       C  0.70867591  0.17603544  0.29461360    -0.04500
C1842       C  0.69270622  0.18260023  0.30077968     0.09700
C1843       C  0.69510488  0.20208190  0.28672643    -0.01900
C1844       C  0.71372087  0.21535987  0.26757800    -0.00100
C1845       C  0.73031934  0.20940191  0.26248173    -0.03800
C1846       C  0.72750927  0.18946398  0.27585279     0.03300
C1847       C  0.67462768  0.17039301  0.32443197     0.10100
C1848       C  0.67867109  0.20881733  0.29283967     0.36000
C1849       C  0.74393088  0.18262592  0.27016784     0.39400
C1850       C  0.67946748  0.17601497  0.35573691    -0.04100
C1851       C  0.66241197  0.16597494  0.37813128     0.03000
C1852       C  0.64020385  0.14999422  0.36954396    -0.03700
C1853       C  0.63541146  0.14415134  0.33815999     0.00000
C1854       C  0.65254898  0.15436305  0.31572575    -0.02500
C1855       C  0.70202254  0.19272793  0.36478176     0.36700
C1856       C  0.61258079  0.12871856  0.32865139     0.40400
C1857       C  0.66783054  0.17220898  0.41013528     0.39500
C1858       C  0.64736449  0.14894174  0.28352658     0.36400
C1859       C  0.70575362  0.15548228  0.30779990     0.37100
C1860       C  0.71640723  0.23588774  0.25463662     0.40300
N1861       N  0.67210829  0.17726353  0.43563921    -0.37700
N1862       N  0.72002701  0.20611129  0.37184438    -0.39300
N1863       N  0.59433052  0.11651877  0.32106434    -0.37100
N1864       N  0.64321418  0.14472000  0.25779938    -0.39400
N1865       N  0.66549331  0.21409181  0.29781619    -0.39200
N1866       N  0.71858772  0.25230884  0.24439707    -0.36800
N1867       N  0.75709244  0.17725030  0.26565604    -0.37900
N1868       N  0.70337553  0.13901695  0.31816479    -0.39600
C1869       C  0.50983822  0.16594501  0.30804166    -0.04500
C1870       C  0.50598088  0.16656037  0.33977125     0.09700
C1871       C  0.49158369  0.17425880  0.34989774    -0.01900
C1872       C  0.48129938  0.18155962  0.32842234    -0.00100
C1873       C  0.48548915  0.18133238  0.29665898    -0.03800
C1874       C  0.49967348  0.17329234  0.28658939     0.03300
C1875       C  0.51748409  0.15930525  0.36227665     0.10100
C1876       C  0.48775031  0.17506934  0.38249111     0.36000
C1877       C  0.50367860  0.17233147  0.25403089     0.39400
C1878       C  0.53713356  0.17539372  0.37738575    -0.04100
C1879       C  0.54982849  0.16859527  0.39498886     0.03000
C1880       C  0.54267917  0.14556418  0.39813652    -0.03700
C1881       C  0.52224397  0.12945378  0.38446348     0.00000
C1882       C  0.50981099  0.13632167  0.36646348    -0.02500
C1883       C  0.54465535  0.19902093  0.37397518     0.36700
C1884       C  0.51388752  0.10573745  0.38895220     0.40400
C1885       C  0.57104056  0.18542555  0.40798471     0.39500
C1886       C  0.48932630  0.11975197  0.35155404     0.36400
C1887       C  0.52461500  0.15802967  0.29750808     0.37100
C1888       C  0.46733827  0.19036145  0.33916997     0.40300
N1889       N  0.58804171  0.19885374  0.41815349    -0.37700
N1890       N  0.55054131  0.21785568  0.37141167    -0.39300
N1891       N  0.50718658  0.08681612  0.39254188    -0.37100
N1892       N  0.47303310  0.10659636  0.33949796    -0.39400
N1893       N  0.48483576  0.17583036  0.40852779    -0.39200
N1894       N  0.45626177  0.19745568  0.34777154    -0.36800
N1895       N  0.50689679  0.17158751  0.22808427    -0.37900
N1896       N  0.53636934  0.15166032  0.28920764    -0.39600
C1897       C  0.64220520  0.17672447  0.56843254    -0.04500
C1898       C  0.66053709  0.17320224  0.57168091     0.09700
C1899       C  0.66369907  0.15984628  0.54999389    -0.01900
C1900       C  0.64898045  0.15045944  0.52483617    -0.00100
C1901       C  0.63040716  0.15381429  0.52144120    -0.03800
C1902       C  0.62702613  0.16684556  0.54375635     0.03300
C1903       C  0.67612355  0.18275670  0.59861270     0.10100
C1904       C  0.68205591  0.15550725  0.55385820     0.36000
C1905       C  0.60743365  0.16939581  0.54230770     0.39400
C1906       C  0.66924364  0.17270510  0.62776834    -0.04100
C1907       C  0.68427393  0.18067231  0.65270020     0.03000
C1908       C  0.70673460  0.19801752  0.64849109    -0.03700
C1909       C  0.71339557  0.20866115  0.61951686     0.00000
C1910       C  0.69802709  0.20113870  0.59480782    -0.02500
C1911       C  0.64687621  0.15372200  0.63188241     0.36700
C1912       C  0.73615228  0.22671009  0.61467809     0.40400
C1913       C  0.67626691  0.17135516  0.68308280     0.39500
C1914       C  0.70487320  0.21206949  0.56512785     0.36400
C1915       C  0.63890978  0.19044628  0.59074081     0.37100
C1916       C  0.65346888  0.13775325  0.50219160     0.40300
N1917       N  0.66991104  0.16415494  0.70729887    -0.37700
N1918       N  0.62901035  0.13849142  0.63518575    -0.39300
N1919       N  0.75434674  0.24119080  0.61065390    -0.37100
N1920       N  0.71026974  0.22071924  0.54148363    -0.39400
N1921       N  0.69667894  0.15203774  0.55700236    -0.39200
N1922       N  0.65707213  0.12760247  0.48418263    -0.36800
N1923       N  0.59175321  0.17135605  0.54137995    -0.37900
N1924       N  0.63630354  0.20135894  0.60861673    -0.39600
C1925       C  0.48932133  0.98495140  0.53874700    -0.04500
C1926       C  0.49376384  0.98982605  0.50723529     0.09700
C1927       C  0.48216602  0.97270220  0.48542194    -0.01900
C1928       C  0.46639071  0.95076615  0.49497288    -0.00100
C1929       C  0.46175244  0.94573382  0.52662540    -0.03800
C1930       C  0.47329613  0.96310177  0.54845290     0.03300
C1931       C  0.51015119  0.01320160  0.49674850     0.10100
C1932       C  0.48625674  0.97783981  0.45296845     0.36000
C1933       C  0.46922704  0.95853230  0.58102734     0.39400
C1934       C  0.53246485  0.01936274  0.48961733    -0.04100
C1935       C  0.54752039  0.04100893  0.47816287     0.03000
C1936       C  0.54030754  0.05671884  0.47336820    -0.03700
C1937       C  0.51789718  0.05046508  0.48107478     0.00000
C1938       C  0.50309187  0.02897573  0.49309860    -0.02500
C1939       C  0.54001680  0.00347634  0.49477105     0.36700
C1940       C  0.50963314  0.06577720  0.47585729     0.40400
C1941       C  0.57067411  0.04727968  0.47258083     0.39500
C1942       C  0.48052001  0.02305318  0.50210940     0.36400
C1943       C  0.50138998  0.00253055  0.56118020     0.37100
C1944       C  0.45445249  0.93361092  0.47192797     0.40300
N1945       N  0.58916297  0.05226371  0.46829481    -0.37700
N1946       N  0.54600852  0.99079404  0.49906564    -0.39300
N1947       N  0.50290309  0.07788362  0.47172535    -0.37100
N1948       N  0.46258281  0.01829174  0.50968731    -0.39400
N1949       N  0.48950283  0.98201823  0.42710193    -0.39200
N1950       N  0.44497355  0.91994959  0.45351582    -0.36800
N1951       N  0.46599263  0.95500330  0.60704409    -0.37900
N1952       N  0.51107332  0.01661158  0.57898309    -0.39600
C1953       C  0.95450401  0.79172590  0.52807316    -0.04500
C1954       C  0.97229409  0.81408546  0.52725765     0.09700
C1955       C  0.97158265  0.83020536  0.54644380    -0.01900
C1956       C  0.95275996  0.82425867  0.56537286    -0.00100
C1957       C  0.93406348  0.80223597  0.56442440    -0.03800
C1958       C  0.93527767  0.78588211  0.54606973     0.03300
C1959       C  0.99058160  0.82133211  0.50378249     0.10100
C1960       C  0.98989076  0.85322033  0.54557482     0.36000
C1961       C  0.91671995  0.76297988  0.54550962     0.39400
C1962       C  0.98665102  0.82566313  0.47349179    -0.04100
C1963       C  0.00416950  0.83450304  0.45177594     0.03000
C1964       C  0.02594251  0.83934840  0.46020046    -0.03700
C1965       C  0.02978164  0.83453854  0.49038056     0.00000
C1966       C  0.01206897  0.82534854  0.51200755    -0.02500
C1967       C  0.96455276  0.82137177  0.46480491     0.36700
C1968       C  0.05217335  0.84018792  0.49973683     0.40400
C1969       C  0.99963538  0.83832691  0.42052680     0.39500
C1970       C  0.01593264  0.82021442  0.54283989     0.36400
C1971       C  0.95592988  0.77481354  0.51000784     0.37100
C1972       C  0.95226939  0.84124503  0.58444889     0.40300
N1973       N  0.99611655  0.84140682  0.39558926    -0.37700
N1974       N  0.94691885  0.81792001  0.45789870    -0.39300
N1975       N  0.07006708  0.84485152  0.50729807    -0.37100
N1976       N  0.01897773  0.81603205  0.56742681    -0.39400
N1977       N  0.00453372  0.87154596  0.54464546    -0.39200
N1978       N  0.95201521  0.85485734  0.59971279    -0.36800
N1979       N  0.90186244  0.74474852  0.54490344    -0.37900
N1980       N  0.95713739  0.76128120  0.49578279    -0.39600
C1981       C  0.13271531  0.97011920  0.45395956    -0.04500
C1982       C  0.15145663  0.97191886  0.46956803     0.09700
C1983       C  0.15774569  0.95566532  0.46461060    -0.01900
C1984       C  0.14449744  0.93686645  0.44592724    -0.00100
C1985       C  0.12477644  0.93415366  0.43189974    -0.03800
C1986       C  0.11938760  0.95131224  0.43517393     0.03300
C1987       C  0.16344106  0.98983670  0.49326487     0.10100
C1988       C  0.17759133  0.95802176  0.47950939     0.36000
C1989       C  0.09937679  0.94904097  0.42092159     0.39400
C1990       C  0.15428950  0.98698429  0.52301464    -0.04100
C1991       C  0.16515167  0.00382091  0.54546228     0.03000
C1992       C  0.18556095  0.02363777  0.53850739    -0.03700
C1993       C  0.19513650  0.02602053  0.50895947     0.00000
C1994       C  0.18407011  0.00919263  0.48646180    -0.02500
C1995       C  0.13386422  0.96637474  0.53067933     0.36700
C1996       C  0.21598754  0.04609774  0.50119509     0.40400
C1997       C  0.15549377  0.00033759  0.57599741     0.39500
C1998       C  0.19391076  0.01169216  0.45624704     0.36400
C1999       C  0.12685955  0.98740990  0.45793259     0.37100
C2000       C  0.15115545  0.92019202  0.44155368     0.40300
N2001       N  0.14772478  0.99751503  0.60029780    -0.37700
N2002       N  0.11766115  0.94985497  0.53674218    -0.39300
N2003       N  0.23264248  0.06210725  0.49498092    -0.37100
N2004       N  0.20178510  0.01354956  0.43218142    -0.39400
N2005       N  0.19349203  0.96000340  0.49130044    -0.39200
N2006       N  0.15650929  0.90689900  0.43839284    -0.36800
N2007       N  0.08338720  0.94723321  0.40963352    -0.37900
N2008       N  0.12222358  0.00123355  0.46107338    -0.39600
C2009       C  0.38830917  0.86641105  0.16055938    -0.04500
C2010       C  0.36779248  0.85812519  0.14490488     0.09700
C2011       C  0.36730957  0.85628111  0.11263459    -0.01900
C2012       C  0.38707697  0.86186872  0.09611426    -0.00100
C2013       C  0.40764308  0.86947524  0.11180093    -0.03800
C2014       C  0.40813904  0.87208590  0.14420815     0.03300
C2015       C  0.34636833  0.84902544  0.16273765     0.10100
C2016       C  0.34624348  0.84815613  0.09652688     0.36000
C2017       C  0.42875755  0.87953903  0.16125318     0.39400
C2018       C  0.33978592  0.86343677  0.17621953    -0.04100
C2019       C  0.32050394  0.85463513  0.19515890     0.03000
C2020       C  0.30743152  0.83122067  0.20024210    -0.03700
C2021       C  0.31345441  0.81681627  0.18500402     0.00000
C2022       C  0.33302061  0.82571503  0.16696765    -0.02500
C2023       C  0.35308734  0.88735890  0.17084444     0.36700
C2024       C  0.29934079  0.79265572  0.18728052     0.40400
C2025       C  0.31479811  0.86985592  0.21023025     0.39500
C2026       C  0.33975935  0.81082840  0.15322154     0.36400
C2027       C  0.38883722  0.86829548  0.19377989     0.37100
C2028       C  0.38609122  0.85990459  0.06292191     0.40300
N2029       N  0.31036427  0.88212196  0.22217371    -0.37700
N2030       N  0.36370822  0.90643607  0.16646776    -0.39300
N2031       N  0.28806960  0.77340233  0.18905066    -0.37100
N2032       N  0.34517385  0.79899724  0.14227553    -0.39400
N2033       N  0.32939057  0.84159998  0.08377958    -0.39200
N2034       N  0.38521443  0.85826241  0.03644922    -0.36800
N2035       N  0.44517608  0.88548960  0.17488738    -0.37900
N2036       N  0.38928120  0.86982003  0.22025884    -0.39600
C2037       C  0.18220628  0.68095120  0.13213027    -0.04500
C2038       C  0.17828531  0.67654912  0.16386471     0.09700
C2039       C  0.16400485  0.65438960  0.17397158    -0.01900
C2040       C  0.15355897  0.63675276  0.15246080    -0.00100
C2041       C  0.15757261  0.64115340  0.12072269    -0.03800
C2042       C  0.17200065  0.66332520  0.11065171     0.03300
C2043       C  0.18905812  0.69550570  0.18639489     0.10100
C2044       C  0.16030528  0.64974311  0.20654870     0.36000
C2045       C  0.17598569  0.66812037  0.07808568     0.39400
C2046       C  0.18035024  0.70993403  0.19047007    -0.04100
C2047       C  0.19201141  0.72948699  0.20845231     0.03000
C2048       C  0.21242214  0.73466985  0.22290951    -0.03700
C2049       C  0.22012712  0.71917228  0.22084299     0.00000
C2050       C  0.20858411  0.69978587  0.20237025    -0.02500
C2051       C  0.15932229  0.70458997  0.17601301     0.36700
C2052       C  0.24031345  0.72341618  0.23678769     0.40400
C2053       C  0.18264239  0.74399668  0.21261894     0.39500
C2054       C  0.21700543  0.68440904  0.19923817     0.36400
C2055       C  0.19687225  0.70369544  0.12160072     0.37100
C2056       C  0.13938993  0.61394258  0.16305363     0.40300
N2057       N  0.17514885  0.75554150  0.21603839    -0.37700
N2058       N  0.14249116  0.70021739  0.16456971    -0.39300
N2059       N  0.25632011  0.72663662  0.24964442    -0.37100
N2060       N  0.22358864  0.67202826  0.19678617    -0.39400
N2061       N  0.15749850  0.64602665  0.23256717    -0.39200
N2062       N  0.12811440  0.59571309  0.17140506    -0.36800
N2063       N  0.17913730  0.67196225  0.05212586    -0.37900
N2064       N  0.20851903  0.72184971  0.11322879    -0.39600
C2065       C  0.33149106  0.82815236  0.45692329    -0.04500
C2066       C  0.33998748  0.82984313  0.42693073     0.09700
C2067       C  0.36294534  0.83701749  0.42285600    -0.01900
C2068       C  0.37755229  0.84382650  0.44839489    -0.00100
C2069       C  0.36932642  0.84373708  0.47821972    -0.03800
C2070       C  0.34601635  0.83475847  0.48244638     0.03300
C2071       C  0.32484187  0.82473030  0.39965151     0.10100
C2072       C  0.37164696  0.83799251  0.39220971     0.36000
C2073       C  0.33678770  0.83137360  0.51321923     0.39400
C2074       C  0.31793205  0.83996338  0.39076750    -0.04100
C2075       C  0.30329394  0.83511205  0.36560685     0.03000
C2076       C  0.29578632  0.81510081  0.34839029    -0.03700
C2077       C  0.30331716  0.80016082  0.35696350     0.00000
C2078       C  0.31734637  0.80475976  0.38278269    -0.02500
C2079       C  0.32597753  0.86075922  0.40766283     0.36700
C2080       C  0.29751572  0.78042232  0.33859168     0.40400
C2081       C  0.29569701  0.85067063  0.35811724     0.39500
C2082       C  0.32401049  0.78881790  0.39215587     0.36400
C2083       C  0.30777669  0.81991418  0.46146148     0.37100
C2084       C  0.40112881  0.85149401  0.44372533     0.40300
N2085       N  0.28971700  0.86316204  0.35227287    -0.37700
N2086       N  0.33239809  0.87729816  0.42123107    -0.39300
N2087       N  0.29302225  0.76474941  0.32385592    -0.37100
N2088       N  0.32930272  0.77607699  0.39960660    -0.39400
N2089       N  0.37851062  0.83863597  0.36774261    -0.39200
N2090       N  0.41990645  0.85743183  0.43998887    -0.36800
N2091       N  0.32937722  0.82831999  0.53775899    -0.37900
N2092       N  0.28888624  0.81349432  0.46504718    -0.39600
C2093       C  0.16214846  0.85643133  0.34340050    -0.04500
C2094       C  0.15421325  0.83376464  0.33609902     0.09700
C2095       C  0.13133178  0.81785393  0.34037157    -0.01900
C2096       C  0.11635664  0.82464981  0.35129051    -0.00100
C2097       C  0.12426180  0.84741795  0.35857553    -0.03800
C2098       C  0.14732478  0.86323801  0.35473027     0.03300
C2099       C  0.17008838  0.82687942  0.32342227     0.10100
C2100       C  0.12320972  0.79448469  0.33330937     0.36000
C2101       C  0.15605092  0.88655458  0.36284185     0.39400
C2102       C  0.18411689  0.82341069  0.34333823    -0.04100
C2103       C  0.19997687  0.81820253  0.33138123     0.03000
C2104       C  0.20220824  0.81669433  0.29924044    -0.03700
C2105       C  0.18805254  0.82014247  0.27929514     0.00000
C2106       C  0.17192490  0.82499485  0.29141551    -0.02500
C2107       C  0.18241446  0.82552035  0.37622915     0.36700
C2108       C  0.18961603  0.81819991  0.24635630     0.40400
C2109       C  0.21457718  0.81519367  0.35232744     0.39500
C2110       C  0.15714796  0.82812430  0.27101019     0.36400
C2111       C  0.18566671  0.87281475  0.33895587     0.37100
C2112       C  0.09263333  0.80833797  0.35351375     0.40300
N2113       N  0.22623248  0.81273780  0.36890447    -0.37700
N2114       N  0.18115967  0.82728695  0.40247865    -0.39300
N2115       N  0.19076196  0.81671520  0.22002153    -0.37100
N2116       N  0.14520077  0.83053143  0.25495673    -0.39400
N2117       N  0.11673696  0.77583075  0.32770701    -0.39200
N2118       N  0.07368606  0.79536561  0.35509661    -0.36800
N2119       N  0.16318878  0.90521554  0.36911787    -0.37900
N2120       N  0.20443294  0.88581785  0.33535785    -0.39600
C2121       C  0.66134203  0.49462764  0.31305567    -0.04500
C2122       C  0.66461149  0.50249158  0.34357859     0.09700
C2123       C  0.68555307  0.52070333  0.35241421    -0.01900
C2124       C  0.70329821  0.53079188  0.33091009    -0.00100
C2125       C  0.70016920  0.52258477  0.30044042    -0.03800
C2126       C  0.67899489  0.50454113  0.29162134     0.03300
C2127       C  0.64587285  0.49105050  0.36629745     0.10100
C2128       C  0.68890299  0.52866986  0.38384976     0.36000
C2129       C  0.67519064  0.49621033  0.26028384     0.39400
C2130       C  0.64181070  0.47096731  0.38035126    -0.04100
C2131       C  0.62228987  0.45829552  0.39810023     0.03000
C2132       C  0.60674339  0.46573696  0.40223358    -0.03700
C2133       C  0.61147454  0.48650682  0.38941377     0.00000
C2134       C  0.63101157  0.49910646  0.37158703    -0.02500
C2135       C  0.65753486  0.46310702  0.37589394     0.36700
C2136       C  0.59635527  0.49502799  0.39461290     0.40400
C2137       C  0.61754455  0.43683711  0.41040033     0.39500
C2138       C  0.63573734  0.52025703  0.35819725     0.36400
C2139       C  0.63973268  0.47611890  0.30374775     0.37100
C2140       C  0.72503564  0.54880354  0.34065301     0.40300
N2141       N  0.61361980  0.41967668  0.42013395    -0.37700
N2142       N  0.67012183  0.45685590  0.37241910    -0.39300
N2143       N  0.58435039  0.50192761  0.39868952    -0.37100
N2144       N  0.63967960  0.53718928  0.34759373    -0.39400
N2145       N  0.69150042  0.53495846  0.40897665    -0.39200
N2146       N  0.74238788  0.56311146  0.34854910    -0.36800
N2147       N  0.67223315  0.48955236  0.23532536    -0.37900
N2148       N  0.62251810  0.46134828  0.29630646    -0.39600
C2149       C  0.83303076  0.48881463  0.33305719    -0.04500
C2150       C  0.83735206  0.51075863  0.33857417     0.09700
C2151       C  0.85200308  0.52361561  0.36245619    -0.01900
C2152       C  0.86122983  0.51405906  0.38196568    -0.00100
C2153       C  0.85658926  0.49190142  0.37675037    -0.03800
C2154       C  0.84290880  0.47955298  0.35172089     0.03300
C2155       C  0.82495634  0.51947277  0.32060579     0.10100
C2156       C  0.85732336  0.54657896  0.36708643     0.36000
C2157       C  0.83917084  0.45734846  0.34487903     0.39400
C2158       C  0.80583726  0.51873998  0.33351283    -0.04100
C2159       C  0.79275079  0.52489642  0.31582705     0.03000
C2160       C  0.79840688  0.53131887  0.28481204    -0.03700
C2161       C  0.81776446  0.53238631  0.27205187     0.00000
C2162       C  0.83111932  0.52667151  0.29003238    -0.02500
C2163       C  0.79916479  0.51080458  0.36470931     0.36700
C2164       C  0.82422171  0.53980964  0.24065890     0.40400
C2165       C  0.77288455  0.52365040  0.32927879     0.39500
C2166       C  0.85109019  0.52792076  0.27707126     0.36400
C2167       C  0.81791783  0.47556497  0.30855663     0.37100
C2168       C  0.87424141  0.52652066  0.40848477     0.40300
N2169       N  0.75707044  0.52267067  0.34003980    -0.37700
N2170       N  0.79384538  0.50439563  0.38955040    -0.39300
N2171       N  0.82939537  0.54575713  0.21561897    -0.37100
N2172       N  0.86702504  0.52887383  0.26680859    -0.39400
N2173       N  0.86167368  0.56494482  0.37061751    -0.39200
N2174       N  0.88441243  0.53640961  0.42980696    -0.36800
N2175       N  0.83630199  0.43969346  0.33939328    -0.37900
N2176       N  0.80583725  0.46508723  0.28899015    -0.39600
C2177       C  0.04670558  0.86911913  0.98838999    -0.04500
C2178       C  0.02963736  0.85116650  0.97160938     0.09700
C2179       C  0.03327795  0.84793938  0.94062941    -0.01900
C2180       C  0.05406686  0.86244746  0.92652384    -0.00100
C2181       C  0.07140513  0.88008345  0.94356040    -0.03800
C2182       C  0.06745153  0.88362642  0.97437988     0.03300
C2183       C  0.00755884  0.83621821  0.98660634     0.10100
C2184       C  0.01562226  0.82954562  0.92345123     0.36000
C2185       C  0.08439103  0.90282607  0.99131324     0.39400
C2186       C  0.99126028  0.84276042  0.98785734    -0.04100
C2187       C  0.97174565  0.83042340  0.00561406     0.03000
C2188       C  0.96883060  0.81194251  0.02320812    -0.03700
C2189       C  0.98417555  0.80418307  0.01957361     0.00000
C2190       C  0.00347170  0.81630291  0.00118138    -0.02500
C2191       C  0.99492638  0.86257681  0.97145918     0.36700
C2192       C  0.98074672  0.78435517  0.03567900     0.40400
C2193       C  0.95443517  0.83648882  0.00524531     0.39500
C2194       C  0.01947531  0.80867559  0.99786718     0.36400
C2195       C  0.04286962  0.87264436  0.02016635     0.37100
C2196       C  0.05770022  0.85891160  0.89470210     0.40300
N2197       N  0.94050207  0.84113965  0.00470368    -0.37700
N2198       N  0.99794624  0.87842447  0.95840077    -0.39300
N2199       N  0.97796472  0.76846479  0.04839069    -0.37100
N2200       N  0.03217726  0.80251767  0.99503150    -0.39400
N2201       N  0.00149067  0.81479145  0.90989260    -0.39200
N2202       N  0.06054950  0.85615607  0.86925534    -0.36800
N2203       N  0.09786990  0.91825745  0.00461665    -0.37900
N2204       N  0.03981892  0.87545027  0.04550655    -0.39600
C2205       C  0.85183878  0.82346666  0.04645200    -0.04500
C2206       C  0.84820325  0.81862555  0.01482731     0.09700
C2207       C  0.85646772  0.80585754  0.00067931    -0.01900
C2208       C  0.86891144  0.79851753  0.01774711    -0.00100
C2209       C  0.87377569  0.80441453  0.04924907    -0.03800
C2210       C  0.86465028  0.81654030  0.06358613     0.03300
C2211       C  0.83658075  0.82780951  0.99580788     0.10100
C2212       C  0.85251256  0.80068260  0.96816931     0.36000
C2213       C  0.86779483  0.82141887  0.09619271     0.39400
C2214       C  0.84849766  0.85019955  0.98578779    -0.04100
C2215       C  0.83828370  0.85861522  0.96605964     0.03000
C2216       C  0.81612413  0.84436521  0.95495696    -0.03700
C2217       C  0.80420630  0.82183130  0.96539318     0.00000
C2218       C  0.81426532  0.81383607  0.98619547    -0.02500
C2219       C  0.87157145  0.86452489  0.99544897     0.36700
C2220       C  0.78191534  0.80637065  0.95400075     0.40400
C2221       C  0.85078418  0.88215879  0.95784244     0.39500
C2222       C  0.80173148  0.79107465  0.99766879     0.36400
C2223       C  0.84225957  0.83554385  0.06134242     0.37100
C2224       C  0.87698791  0.78529124  0.00226964     0.40300
N2225       N  0.86086096  0.90095496  0.95144742    -0.37700
N2226       N  0.88996583  0.87587958  0.00315277    -0.39300
N2227       N  0.76416607  0.79387291  0.94492732    -0.37100
N2228       N  0.79177341  0.77296713  0.00700312    -0.39400
N2229       N  0.84928399  0.79659495  0.94226771    -0.39200
N2230       N  0.88316084  0.77457074  0.98977562    -0.36800
N2231       N  0.87023690  0.82529286  0.12221541    -0.37900
N2232       N  0.83454067  0.84510911  0.07322988    -0.39600
C2233       C  0.99772939  0.84047788  0.20137119    -0.04500
C2234       C  0.98933805  0.83124825  0.23061460     0.09700
C2235       C  0.96664174  0.81443238  0.23376378    -0.01900
C2236       C  0.95233442  0.80698578  0.20792677    -0.00100
C2237       C  0.96085496  0.81586182  0.17852271    -0.03800
C2238       C  0.98365534  0.83252905  0.17537440     0.03300
C2239       C  0.00476428  0.83859429  0.25781368     0.10100
C2240       C  0.95823691  0.80416341  0.26351722     0.36000
C2241       C  0.99274320  0.84156189  0.14526112     0.39400
C2242       C  0.00478829  0.85395911  0.27929379    -0.04100
C2243       C  0.01934452  0.86078813  0.30489290     0.03000
C2244       C  0.03424286  0.85254156  0.30899804    -0.03700
C2245       C  0.03432480  0.83733480  0.28711768     0.00000
C2246       C  0.01950356  0.83027543  0.26191057    -0.02500
C2247       C  0.98977559  0.86265360  0.27494421     0.36700
C2248       C  0.05012716  0.82943730  0.28990398     0.40400
C2249       C  0.01825983  0.87566270  0.32757203     0.39500
C2250       C  0.01932736  0.81424757  0.24008618     0.36400
C2251       C  0.02092587  0.85799142  0.19810970     0.37100
C2252       C  0.92921164  0.78933476  0.21132013     0.40300
N2253       N  0.01725214  0.88743140  0.34559317    -0.37700
N2254       N  0.97772019  0.86954801  0.27133824    -0.39300
N2255       N  0.06282222  0.82318954  0.29211172    -0.37100
N2256       N  0.01915164  0.80149406  0.22270583    -0.39400
N2257       N  0.95165373  0.79593022  0.28719457    -0.39200
N2258       N  0.91072553  0.77516704  0.21401145    -0.36800
N2259       N  0.00001531  0.84865291  0.12129265    -0.37900
N2260       N  0.03949130  0.87200250  0.19561378    -0.39600
C2261       C  0.86901830  0.68573438  0.15623083    -0.04500
C2262       C  0.84588530  0.67527137  0.14984578     0.09700
C2263       C  0.83782561  0.68565377  0.12987571    -0.01900
C2264       C  0.85262991  0.70708362  0.11790715    -0.00100
C2265       C  0.87572253  0.71789269  0.12501301    -0.03800
C2266       C  0.88398323  0.70682538  0.14339371     0.03300
C2267       C  0.82993537  0.65336032  0.16448712     0.10100
C2268       C  0.81429906  0.67418439  0.12157621     0.36000
C2269       C  0.90775190  0.71743274  0.14997847     0.39400
C2270       C  0.82006491  0.65289436  0.19304985    -0.04100
C2271       C  0.80517239  0.63224546  0.20712340     0.03000
C2272       C  0.79995312  0.61179592  0.19259052    -0.03700
C2273       C  0.80985587  0.61245360  0.16368518     0.00000
C2274       C  0.82487289  0.63314981  0.14990746    -0.02500
C2275       C  0.82556708  0.67379868  0.20813767     0.36700
C2276       C  0.80422318  0.59191556  0.14741936     0.40400
C2277       C  0.79591208  0.63224232  0.23705063     0.39500
C2278       C  0.83528938  0.63375405  0.12067114     0.36400
C2279       C  0.87728800  0.67489503  0.17649807     0.37100
C2280       C  0.84415732  0.71786897  0.09783214     0.40300
N2281       N  0.78856942  0.63230956  0.26093825    -0.37700
N2282       N  0.83004374  0.69050896  0.22012230    -0.39300
N2283       N  0.79977895  0.57557832  0.13437688    -0.37100
N2284       N  0.84369930  0.63433415  0.09741208    -0.39400
N2285       N  0.79556578  0.66493156  0.11473801    -0.39200
N2286       N  0.83745293  0.72650888  0.08181047    -0.36800
N2287       N  0.92673354  0.72582853  0.15508986    -0.37900
N2288       N  0.88377653  0.66619890  0.19277179    -0.39600
C2289       C  0.70636004  0.53647386  0.79884801    -0.04500
C2290       C  0.69073242  0.51433075  0.80731116     0.09700
C2291       C  0.69048295  0.49625846  0.79178787    -0.01900
C2292       C  0.70680281  0.50029504  0.76924641    -0.00100
C2293       C  0.72372437  0.52250687  0.76254595    -0.03800
C2294       C  0.72272119  0.54058657  0.77639083     0.03300
C2295       C  0.67489601  0.50993959  0.83329035     0.10100
C2296       C  0.67380670  0.47346954  0.79983640     0.36000
C2297       C  0.73835127  0.56348176  0.76731613     0.39400
C2298       C  0.65394676  0.50814750  0.82787614    -0.04100
C2299       C  0.63824721  0.50210744  0.85193503     0.03000
C2300       C  0.64351695  0.49791659  0.88166038    -0.03700
C2301       C  0.66511566  0.50110235  0.88738335     0.00000
C2302       C  0.68066399  0.50690822  0.86319373    -0.02500
C2303       C  0.64835808  0.51187810  0.79723287     0.36700
C2304       C  0.67153320  0.49872891  0.91822945     0.40400
C2305       C  0.61624655  0.49898407  0.84551099     0.39500
C2306       C  0.70248588  0.50932167  0.86886071     0.36400
C2307       C  0.70587068  0.55500000  0.81386106     0.37100
C2308       C  0.70664817  0.48150258  0.75408207     0.40300
N2309       N  0.59868547  0.49646166  0.84035879    -0.37700
N2310       N  0.64397296  0.51488545  0.77275049    -0.39300
N2311       N  0.67679898  0.49700332  0.94280751    -0.37100
N2312       N  0.71986907  0.51119306  0.87331015    -0.39400
N2313       N  0.66050238  0.45532188  0.80638075    -0.39200
N2314       N  0.70639666  0.46647480  0.74187264    -0.36800
N2315       N  0.75070209  0.58175084  0.76001517    -0.37900
N2316       N  0.70539835  0.56971804  0.82588825    -0.39600
C2317       C  0.53768576  0.38377927  0.84812517    -0.04500
C2318       C  0.52050131  0.36442729  0.86245080     0.09700
C2319       C  0.51742619  0.36441712  0.89448155    -0.01900
C2320       C  0.53117333  0.38380582  0.91204497    -0.00100
C2321       C  0.54832230  0.40334982  0.89770428    -0.03800
C2322       C  0.55160086  0.40309612  0.86558846     0.03300
C2323       C  0.50620499  0.34390316  0.84354982     0.10100
C2324       C  0.50001718  0.34441970  0.90932830     0.36000
C2325       C  0.56978143  0.42241211  0.85042593     0.39400
C2326       C  0.51141485  0.32664597  0.84202877    -0.04100
C2327       C  0.50011151  0.30879729  0.82112163     0.03000
C2328       C  0.48325620  0.30787651  0.80161723    -0.03700
C2329       C  0.47733810  0.32467973  0.80417362     0.00000
C2330       C  0.48882867  0.34264427  0.82504977    -0.02500
C2331       C  0.52902220  0.32768097  0.86130382     0.36700
C2332       C  0.46058127  0.32442457  0.78392810     0.40400
C2333       C  0.50624587  0.29156650  0.81937691     0.39500
C2334       C  0.48341754  0.36037094  0.82680835     0.36400
C2335       C  0.54116425  0.38365735  0.81526308     0.37100
C2336       C  0.52704834  0.38379403  0.94471242     0.40300
N2337       N  0.51134215  0.27799130  0.81779452    -0.37700
N2338       N  0.54302518  0.32845476  0.87671178    -0.39300
N2339       N  0.44730278  0.32437979  0.76771900    -0.37100
N2340       N  0.47930374  0.37465217  0.82828826    -0.39400
N2341       N  0.48619996  0.32843893  0.92123147    -0.39200
N2342       N  0.52374252  0.38381832  0.97076485    -0.36800
N2343       N  0.58428391  0.43774808  0.83824693    -0.37900
N2344       N  0.54379560  0.38345170  0.78904737    -0.39600
C2345       C  0.69540334  0.52047495  0.10551127    -0.04500
C2346       C  0.67927806  0.49744926  0.10489577     0.09700
C2347       C  0.67985712  0.48310586  0.12741267    -0.01900
C2348       C  0.69624429  0.49182618  0.15083284    -0.00100
C2349       C  0.71184349  0.51509756  0.15222813    -0.03800
C2350       C  0.71167037  0.52924654  0.12890367     0.03300
C2351       C  0.66162172  0.48856846  0.08046360     0.10100
C2352       C  0.66295682  0.45952515  0.12713267     0.36000
C2353       C  0.72848277  0.55289543  0.12861932     0.39400
C2354       C  0.66390178  0.47773624  0.05436507    -0.04100
C2355       C  0.64828618  0.47112592  0.03012268     0.03000
C2356       C  0.63094384  0.47638155  0.03112547    -0.03700
C2357       C  0.62866789  0.48717192  0.05739784     0.00000
C2358       C  0.64350113  0.49253668  0.08235914    -0.02500
C2359       C  0.68287248  0.47422037  0.05198539     0.36700
C2360       C  0.61119713  0.49297966  0.05874622     0.40400
C2361       C  0.65084649  0.45996464  0.00347206     0.39500
C2362       C  0.64026048  0.50229566  0.11004489     0.36400
C2363       C  0.69490474  0.53526658  0.08233301     0.37100
C2364       C  0.69635280  0.47691365  0.17409587     0.40300
N2365       N  0.65286729  0.45097754  0.98229273    -0.37700
N2366       N  0.69810115  0.47156196  0.05009192    -0.39300
N2367       N  0.59745771  0.49788739  0.05973656    -0.37100
N2368       N  0.63761677  0.50990832  0.13225912    -0.39400
N2369       N  0.64935779  0.44074732  0.12691063    -0.39200
N2370       N  0.69639624  0.46490389  0.19252799    -0.36800
N2371       N  0.74190789  0.57173460  0.12839509    -0.37900
N2372       N  0.69434329  0.54704361  0.06396941    -0.39600
C2373       C  0.33654707  0.48572536  0.16333439    -0.04500
C2374       C  0.33333006  0.50167443  0.17929107     0.09700
C2375       C  0.34945285  0.52460036  0.17696987    -0.01900
C2376       C  0.36797265  0.53166236  0.15717887    -0.00100
C2377       C  0.37032123  0.51586649  0.13911335    -0.03800
C2378       C  0.35498110  0.49272020  0.14326650     0.03300
C2379       C  0.31194764  0.49458438  0.19627052     0.10100
C2380       C  0.34641183  0.54092319  0.19403911     0.36000
C2381       C  0.35721788  0.47615623  0.12560888     0.39400
C2382       C  0.31061819  0.49097540  0.22822500    -0.04100
C2383       C  0.29031317  0.48427987  0.24395408     0.03000
C2384       C  0.27125074  0.48129923  0.22778312    -0.03700
C2385       C  0.27281960  0.48543333  0.19581350     0.00000
C2386       C  0.29310261  0.49204383  0.18017381    -0.02500
C2387       C  0.33023544  0.49435497  0.24487527     0.36700
C2388       C  0.25389365  0.48384751  0.17915283     0.40400
C2389       C  0.28892359  0.47988109  0.27666265     0.39500
C2390       C  0.29482234  0.49674512  0.14750283     0.36400
C2391       C  0.32025883  0.46206375  0.16666124     0.37100
C2392       C  0.38453952  0.55538362  0.15530883     0.40300
N2393       N  0.28777606  0.47637124  0.30274561    -0.37700
N2394       N  0.34594479  0.49719135  0.25818892    -0.39300
N2395       N  0.23884743  0.48270171  0.16585975    -0.37100
N2396       N  0.29635118  0.50061071  0.12150255    -0.39400
N2397       N  0.34389523  0.55392266  0.20768822    -0.39200
N2398       N  0.39766575  0.57423060  0.15379620    -0.36800
N2399       N  0.35893516  0.46282845  0.11150708    -0.37900
N2400       N  0.30724653  0.44325643  0.16934926    -0.39600
C2401       C  0.48518088  0.64524546  0.11005534    -0.04500
C2402       C  0.48814628  0.64474062  0.14205495     0.09700
C2403       C  0.47777740  0.62399476  0.15748381    -0.01900
C2404       C  0.46457948  0.60386197  0.14121182    -0.00100
C2405       C  0.46145625  0.60424570  0.10903805    -0.03800
C2406       C  0.47183478  0.62513678  0.09366860     0.03300
C2407       C  0.50149591  0.66603165  0.15998494     0.10100
C2408       C  0.48033919  0.62338613  0.19053221     0.36000
C2409       C  0.46924405  0.62611979  0.06072514     0.39400
C2410       C  0.49254215  0.68007756  0.16594227    -0.04100
C2411       C  0.50372720  0.69856395  0.18595183     0.03000
C2412       C  0.52366646  0.70278469  0.20107398    -0.03700
C2413       C  0.53331749  0.68948793  0.19351561     0.00000
C2414       C  0.52233477  0.67132360  0.17291339    -0.02500
C2415       C  0.47141686  0.67509762  0.15211883     0.36700
C2416       C  0.55398873  0.69367364  0.20793331     0.40400
C2417       C  0.49473127  0.71338544  0.19048209     0.39500
C2418       C  0.53217006  0.65758336  0.16570379     0.36400
C2419       C  0.49581150  0.66649622  0.09406062     0.37100
C2420       C  0.45359015  0.58294176  0.15805048     0.40300
N2421       N  0.48752603  0.72517702  0.19383208    -0.37700
N2422       N  0.45462685  0.67112614  0.14090178    -0.39300
N2423       N  0.57050736  0.69703888  0.21942677    -0.37100
N2424       N  0.54002641  0.64661768  0.16012244    -0.39400
N2425       N  0.48247216  0.62293551  0.21676311    -0.39200
N2426       N  0.44485468  0.56625978  0.17163737    -0.36800
N2427       N  0.46714825  0.62693308  0.03455096    -0.37900
N2428       N  0.50415403  0.68350372  0.08127561    -0.39600
C2429       C  0.33197266  0.51210684  0.96983183    -0.04500
C2430       C  0.33903237  0.51429190  0.93893123     0.09700
C2431       C  0.36219417  0.52473851  0.93226673    -0.01900
C2432       C  0.37806129  0.53190184  0.95628210    -0.00100
C2433       C  0.37092293  0.52879327  0.98720838    -0.03800
C2434       C  0.34785732  0.51961981  0.99383253     0.03300
C2435       C  0.32208131  0.50448347  0.91347140     0.10100
C2436       C  0.36966656  0.52730652  0.90063047     0.36000
C2437       C  0.34047331  0.51838441  0.02536360     0.39400
C2438       C  0.31875565  0.51849040  0.89322859    -0.04100
C2439       C  0.30393594  0.50922036  0.86806928     0.03000
C2440       C  0.29178329  0.48574155  0.86341893    -0.03700
C2441       C  0.29445578  0.47170714  0.88452043     0.00000
C2442       C  0.30971505  0.48104170  0.90911873    -0.02500
C2443       C  0.33069153  0.54250578  0.89827340     0.36700
C2444       C  0.28111400  0.44753533  0.88143871     0.40400
C2445       C  0.30206673  0.52399641  0.84620788     0.39500
C2446       C  0.31285699  0.46646648  0.92989275     0.36400
C2447       C  0.30825665  0.50146894  0.97695338     0.37100
C2448       C  0.40164837  0.54136685  0.94911101     0.40300
N2449       N  0.30063990  0.53576997  0.82867104    -0.37700
N2450       N  0.34019502  0.56166658  0.90231154    -0.39300
N2451       N  0.27042580  0.42826262  0.87903870    -0.37100
N2452       N  0.31529033  0.45485755  0.94657580    -0.39400
N2453       N  0.37565350  0.52943917  0.87539012    -0.39200
N2454       N  0.42048165  0.54888729  0.94351676    -0.36800
N2455       N  0.33457806  0.51760427  0.05046031    -0.37900
N2456       N  0.28932041  0.49269632  0.98262056    -0.39600
C2457       C  0.51612311  0.48462896  0.01917215    -0.04500
C2458       C  0.50915520  0.49603093  0.99930967     0.09700
C2459       C  0.51791244  0.50126832  0.96924689    -0.01900
C2460       C  0.53342278  0.49499938  0.95896665    -0.00100
C2461       C  0.54075040  0.48383216  0.97898123    -0.03800
C2462       C  0.53194740  0.47870303  0.00922641     0.03300
C2463       C  0.49297334  0.50304717  0.01033680     0.10100
C2464       C  0.51112287  0.51341204  0.94899235     0.36000
C2465       C  0.53968289  0.46803652  0.03070614     0.39400
C2466       C  0.50071609  0.52270307  0.02804208    -0.04100
C2467       C  0.48562830  0.52955950  0.03813298     0.03000
C2468       C  0.46260725  0.51680762  0.03054673    -0.03700
C2469       C  0.45488000  0.49709410  0.01283700     0.00000
C2470       C  0.46998654  0.49015846  0.00299223    -0.02500
C2471       C  0.52427693  0.53579132  0.03599459     0.36700
C2472       C  0.43157209  0.48445948  0.00357697     0.40400
C2473       C  0.49375594  0.54945746  0.05706876     0.39500
C2474       C  0.46192153  0.46966885  0.98542152     0.36400
C2475       C  0.50711720  0.47920436  0.05008205     0.37100
C2476       C  0.54123916  0.49951077  0.92742773     0.40300
N2477       N  0.50024730  0.56530472  0.07223385    -0.37700
N2478       N  0.54307463  0.54609491  0.04235895    -0.39300
N2479       N  0.41301180  0.47447206  0.99597397    -0.37100
N2480       N  0.45556128  0.45328884  0.97148554    -0.39400
N2481       N  0.50575999  0.52317128  0.93288725    -0.39200
N2482       N  0.54739151  0.50307269  0.90223498    -0.36800
N2483       N  0.54582914  0.45954340  0.04789222    -0.37900
N2484       N  0.49995989  0.47491792  0.07475253    -0.39600
loop_ 
_geom_bond_atom_site_label_1 
_geom_bond_atom_site_label_2 
_geom_bond_distance 
_geom_bond_site_symmetry_2 
_ccdc_geom_bond_type 
O1            C4   1.268       .  A
O1           Cd6   2.501       .  S
C2           O11   1.265       .  A
C2            O7   1.270       .  A
C2         C2405   1.497       .  S
O3            C9   1.270       .  A
O3           Cd6   2.500       .  S
C4           O12   1.263       .  A
C4         C2433   1.490   1_554  S
C5           O10   1.268       .  A
C5            O8   1.264       .  A
C5         C2468   1.491       .  S
Cd6          O13   2.414       .  S
Cd6          O12   2.455       .  S
Cd6          O11   2.444       .  S
Cd6           O7   2.481       .  S
Cd6          O10   2.501       .  S
Cd6           O8   2.470       .  S
C9           O13   1.264       .  A
C9         C2377   1.490       .  S
O14          C17   1.269       .  A
O14         Cd19   2.489       .  S
C15          O24   1.265   1_554  A
C15          O20   1.268   1_554  A
C15        C2356   1.488       .  S
O16          C22   1.268       .  A
O16         Cd19   2.480       .  S
C17          O25   1.264       .  A
C17        C2321   1.494       .  S
C18          O23   1.268       .  A
C18          O21   1.266       .  A
C18        C2461   1.496       .  S
Cd19         O26   2.436       .  S
Cd19         O25   2.449       .  S
Cd19         O24   2.453       .  S
Cd19         O20   2.482       .  S
Cd19         O23   2.477       .  S
Cd19         O21   2.457       .  S
C22          O26   1.264       .  A
C22        C2300   1.486       .  S
O27          C30   1.270       .  A
O27         Cd32   2.491       .  S
C28          O37   1.263       .  A
C28          O33   1.268       .  A
C28        C2237   1.488       .  S
O29          C35   1.268       .  A
O29         Cd32   2.482       .  S
C30          O38   1.264       .  A
C30        C2209   1.501       .  S
C31          O36   1.269       .  A
C31          O34   1.265       .  A
C31        C2188   1.488       .  S
Cd32         O39   2.437       .  S
Cd32         O38   2.442       .  S
Cd32         O37   2.456       .  S
Cd32         O33   2.506       .  S
Cd32         O36   2.483       .  S
Cd32         O34   2.422       .  S
C35          O39   1.264       .  A
C35        C2265   1.482       .  S
O40          C43   1.270       .  A
O40         Cd45   2.470       .  S
C41          O50   1.264       .  A
C41          O46   1.270       .  A
C41        C2349   1.491       .  S
O42          C48   1.271       .  A
O42         Cd45   2.504       .  S
C43          O51   1.265       .  A
C43        C2160   1.482       .  S
C44          O49   1.270       .  A
C44          O47   1.265       .  A
C44        C2272   1.496       .  S
Cd45         O52   2.418       .  S
Cd45         O51   2.427       .  S
Cd45         O50   2.422       .  S
Cd45         O46   2.506       .  S
Cd45         O49   2.482       .  S
Cd45         O47   2.439       .  S
C48          O52   1.264       .  A
C48        C2125   1.490       .  S
O53          C56   1.267       .  A
O53         Cd58   2.494       .  S
C54          O63   1.266       .  A
C54          O59   1.268       .  A
C54        C2076   1.502       .  S
O55          C61   1.270       .  A
O55         Cd58   2.518       .  S
C56          O64   1.265       .  A
C56        C2048   1.493       .  S
C57          O62   1.269       .  A
C57          O60   1.264       .  A
C57        C2104   1.494       .  S
Cd58         O65   2.413       .  S
Cd58         O64   2.456       .  S
Cd58         O63   2.470       .  S
Cd58         O59   2.474       .  S
Cd58         O62   2.510       .  S
Cd58         O60   2.444       .  S
C61          O65   1.263       .  A
C61        C2020   1.496       .  S
O66          C69   1.269       .  A
O66         Cd71   2.503       .  S
C67          O76   1.264       .  A
C67          O72   1.269       .  A
C67        C2244   1.495       .  S
O68          C74   1.268       .  A
O68         Cd71   2.482       .  S
C69          O77   1.264       .  A
C69        C1985   1.492       .  S
C70          O75   1.268       .  A
C70          O73   1.264       .  A
C70        C1964   1.489       .  S
Cd71         O78   2.463       .  S
Cd71         O77   2.436       .  S
Cd71         O76   2.448       .  S
Cd71         O72   2.507       .  S
Cd71         O75   2.496       .  S
Cd71         O73   2.441       .  S
C74          O78   1.266       .  A
C74        C2097   1.493       .  S
O79          C82   1.268       .  A
O79         Cd84   2.495       .  S
C80          O89   1.265       .  A
C80          O85   1.268       .  A
C80        C1880   1.491       .  S
O81          C87   1.269       .  A
O81         Cd84   2.526       .  S
C82          O90   1.265       .  A
C82        C1901   1.501       .  S
C83          O88   1.270       .  A
C83          O86   1.266       .  A
C83        C1936   1.502       .  S
Cd84         O91   2.457       .  S
Cd84         O90   2.455       .  S
Cd84         O89   2.452       .  S
Cd84         O85   2.490       .  S
Cd84         O88   2.503       .  S
Cd84         O86   2.466       .  S
C87          O91   1.263       .  A
C87        C1852   1.498       .  S
O92          C95   1.267       .  A
O92         Cd97   2.507       .  S
C93         O102   1.265       .  A
C93          O98   1.269       .  A
C93        C1824   1.490       .  S
O94         C100   1.267       .  A
O94         Cd97   2.498       .  S
C95         O103   1.265       .  A
C95        C2069   1.494       .  S
C96         O101   1.268       .  A
C96          O99   1.264       .  A
C96        C1789   1.487       .  S
Cd97        O104   2.467       .  S
Cd97        O103   2.460       .  S
Cd97        O102   2.441       .  S
Cd97         O98   2.484       .  S
Cd97        O101   2.494       .  S
Cd97         O99   2.448       .  S
C100        O104   1.265       .  A
C100       C1929   1.499       .  S
O105        C108   1.266       .  A
O105       Cd110   2.482       .  S
C106        O115   1.267       .  A
C106        O111   1.267       .  A
C106       C1740   1.487       .  S
O107        C113   1.270       .  A
O107       Cd110   2.512       .  S
C108        O116   1.263       .  A
C108       C1712   1.495       .  S
C109        O114   1.267       .  A
C109        O112   1.263       .  A
C109       C1768   1.498       .  S
Cd110       O117   2.436       .  S
Cd110       O116   2.458       .  S
Cd110       O115   2.445       .  S
Cd110       O111   2.490       .  S
Cd110       O114   2.503       .  S
Cd110       O112   2.450       .  S
C113        O117   1.264       .  A
C113       C1677   1.502       .  S
O118        C121   1.269       .  A
O118       Cd123   2.503       .  S
C119        O128   1.264       .  A
C119        O124   1.269       .  A
C119       C1656   1.491       .  S
O120        C126   1.270       .  A
O120       Cd123   2.490       .  S
C121        O129   1.265       .  A
C121       C1908   1.493       .  S
C122        O127   1.268       .  A
C122        O125   1.265       .  A
C122       C1761   1.488       .  S
Cd123       O130   2.417       .  S
Cd123       O129   2.430       .  S
Cd123       O128   2.438       .  S
Cd123       O124   2.486       .  S
Cd123       O127   2.478       .  S
Cd123       O125   2.444       .  S
C126        O130   1.264       .  A
C126       C1621   1.485       .  S
O131        C134   1.270       .  A
O131       Cd136   2.490       .  S
C132        O141   1.264       .  A
C132        O137   1.268       .  A
C132       C1565   1.497       .  S
O133        C139   1.269       .  A
O133       Cd136   2.503       .  S
C134        O142   1.266       .  A
C134       C2440   1.494       .  S
C135        O140   1.269       .  A
C135        O138   1.265       .  A
C135       C1593   1.494       .  S
Cd136       O143   2.443       .  S
Cd136       O142   2.448       .  S
Cd136       O141   2.453       .  S
Cd136       O137   2.494       .  S
Cd136       O140   2.484       .  S
Cd136       O138   2.468       .  S
C139        O143   1.264       .  A
C139       C1544   1.495       .  S
O144        C147   1.270       .  A
O144       Cd149   2.526       .  S
C145        O154   1.264       .  A
C145        O150   1.270       .  A
C145       C1733   1.503       .  S
O146        C152   1.269       .  A
O146       Cd149   2.492       .  S
C147        O155   1.263       .  A
C147       C1509   1.497       .  S
C148        O153   1.267       .  A
C148        O151   1.266       .  A
C148       C1600   1.496       .  S
Cd149       O156   2.437       .  S
Cd149       O155   2.430       .  S
Cd149       O154   2.443       .  S
Cd149       O150   2.516       .  S
Cd149       O153   2.473       .  S
Cd149       O151   2.465       .  S
C152        O156   1.266       .  A
C152       C1481   1.495       .  S
O157        C160   1.269       .  A
O157       Cd162   2.498       .  S
C158        O167   1.265       .  A
C158        O163   1.269       .  A
C158       C1425   1.492       .  S
O159        C165   1.269       .  A
O159       Cd162   2.481       .  S
C160        O168   1.265       .  A
C160       C1957   1.495       .  S
C161        O166   1.268       .  A
C161        O164   1.266       .  A
C161       C1453   1.492       .  S
Cd162       O169   2.417       .  S
Cd162       O168   2.452       .  S
Cd162       O167   2.449       .  S
Cd162       O163   2.492       .  S
Cd162       O166   2.480       .  S
Cd162       O164   2.454       .  S
C165        O169   1.263       .  A
C165       C1397   1.482       .  S
O170        C173   1.270       .  A
O170       Cd175   2.497       .  S
C171        O180   1.264       .  A
C171        O176   1.270       .  A
C171       C1376   1.483       .  S
O172        C178   1.267       .  A
O172       Cd175   2.454       .  S
C173        O181   1.263       .  A
C173       C2293   1.489       .  S
C174        O179   1.269       .  A
C174        O177   1.266       .  A
C174       C1341   1.497       .  S
Cd175       O182   2.466       .  S
Cd175       O181   2.418       .  S
Cd175       O180   2.434       .  S
Cd175       O176   2.493       .  S
Cd175       O179   2.479       .  S
Cd175       O177   2.437       .  S
C178        O182   1.266       .  A
C178       C1460   1.489       .  S
O183        C186   1.267       .  A
O183       Cd188   2.491       .  S
C184        O193   1.264       .  A
C184        O189   1.266       .  A
C184       C1264   1.492       .  S
O185        C191   1.266       .  A
O185       Cd188   2.511       .  S
C186        O194   1.265       .  A
C186       C1285   1.503       .  S
C187        O192   1.268       .  A
C187        O190   1.265       .  A
C187       C1313   1.490       .  S
Cd188       O195   2.457       .  S
Cd188       O194   2.464       .  S
Cd188       O193   2.446       .  S
Cd188       O189   2.500       .  S
Cd188       O192   2.491       .  S
Cd188       O190   2.444       .  S
C191        O195   1.264       .  A
C191       C1516   1.496       .  S
O196        C199   1.268       .  A
O196       Cd201   2.492       .  S
C197        O206   1.266       .  A
C197        O202   1.269       .  A
C197       C1236   1.492       .  S
O198        C204   1.269       .  A
O198       Cd201   2.504       .  S
C199        O207   1.264       .  A
C199       C1201   1.493       .  S
C200        O205   1.269       .  A
C200        O203   1.265       .  A
C200       C1320   1.496       .  S
Cd201       O208   2.438       .  S
Cd201       O207   2.448       .  S
Cd201       O206   2.445       .  S
Cd201       O202   2.477       .  S
Cd201       O205   2.493       .  S
Cd201       O203   2.455       .  S
C204        O208   1.263       .  A
C204       C1873   1.488       .  S
O209        C212   1.270       .  A
O209       Cd214   2.500       .  S
C210        O219   1.263       .  A
C210        O215   1.270       .  A
C210       C1369   1.497       .  S
O211        C217   1.267       .  A
O211       Cd214   2.482       .  S
C212        O220   1.265       .  A
C212       C1152   1.498       .  S
C213        O218   1.268       .  A
C213        O216   1.265       .  A
C213       C2153   1.483       .  S
Cd214       O221   2.464       .  S
Cd214       O220   2.471       .  S
Cd214       O219   2.434       .  S
Cd214       O215   2.522       .  S
Cd214       O218   2.476       .  S
Cd214       O216   2.430       .  S
C217        O221   1.266       .  A
C217       C1173   1.492       .  S
O222        C225   1.269       .  A
O222       Cd227   2.488       .  S
C223        O232   1.264       .  A
C223        O228   1.270       .  A
C223       C1117   1.492       .  S
O224        C230   1.270       .  A
O224       Cd227   2.490       .  S
C225        O233   1.265       .  A
C225       C1089   1.486       .  S
C226        O231   1.269       .  A
C226        O229   1.265       .  A
C226       C1180   1.496       .  S
Cd227       O234   2.435       .  S
Cd227       O233   2.441       .  S
Cd227       O232   2.425       .  S
Cd227       O228   2.507       .  S
Cd227       O231   2.492       .  S
Cd227       O229   2.459       .  S
C230        O234   1.265       .  A
C230       C1572   1.493       .  S
O235        C238   1.269       .  A
O235       Cd240   2.486       .  S
C236        O245   1.265       .  A
C236        O241   1.269       .  A
C236       C1684   1.498       .  S
O237        C243   1.271       .  A
O237       Cd240   2.518       .  S
C238        O246   1.266       .  A
C238       C1292   1.501       .  S
C239        O244   1.270       .  A
C239        O242   1.266       .  A
C239       C1061   1.497       .  S
Cd240       O247   2.434       .  S
Cd240       O246   2.466       .  S
Cd240       O245   2.447       .  S
Cd240       O241   2.490       .  S
Cd240       O244   2.500       .  S
Cd240       O242   2.459       .  S
C243        O247   1.263       .  A
C243       C1040   1.498       .  S
O248        C251   1.266       .  A
O248       Cd253   2.474       .  S
C249        O258   1.266       .  A
C249        O254   1.267       .  A
C249       C1124   1.485       .  S
O250        C256   1.268       .  A
O250       Cd253   2.515       .  S
C251        O259   1.264       .  A
C251       C2384   1.486       .  S
C252        O257   1.269       .  A
C252        O255   1.265       .  A
C252       C1068   1.503       .  S
Cd253       O260   2.437       .  S
Cd253       O259   2.457       .  S
Cd253       O258   2.452       .  S
Cd253       O254   2.495       .  S
Cd253       O257   2.502       .  S
Cd253       O255   2.472       .  S
C256        O260   1.263       .  A
C256       C1012   1.487       .  S
O261        C264   1.269       .  A
O261       Cd266   2.488       .  S
C262        O271   1.265       .  A
C262        O267   1.270       .  A
C262       C2013   1.497       .  S
O263        C269   1.271       .  A
O263       Cd266   2.501       .  S
C264        O272   1.266       .  A
C264        C949   1.492   1_554  S
C265        O270   1.270       .  A
C265        O268   1.266       .  A
C265        C984   1.497       .  S
Cd266       O273   2.438       .  S
Cd266       O272   2.440       .  S
Cd266       O271   2.437       .  S
Cd266       O267   2.481       .  S
Cd266       O270   2.504       .  S
Cd266       O268   2.449       .  S
C269        O273   1.263       .  A
C269        C921   1.495       .  S
O274        C277   1.269       .  A
O274       Cd279   2.490       .  S
C275        O284   1.264       .  A
C275        O280   1.269       .  A
C275       C1628   1.492       .  S
O276        C282   1.270       .  A
O276       Cd279   2.508       .  S
C277        O285   1.266       .  A
C277       C1229   1.485   1_556  S
C278        O283   1.272       .  A
C278        O281   1.265       .  A
C278        C900   1.501       .  S
Cd279       O286   2.455       .  S
Cd279       O285   2.436       .  S
Cd279       O284   2.445       .  S
Cd279       O280   2.489       .  S
Cd279       O283   2.506       .  S
Cd279       O281   2.431       .  S
C282        O286   1.264       .  A
C282        C977   1.495       .  S
O287        C290   1.268       .  A
O287       Cd292   2.493       .  S
C288        O297   1.265       .  A
C288        O293   1.269       .  A
C288       C1432   1.480       .  S
O289        C295   1.271       .  A
O289       Cd292   2.496       .  S
C290        O298   1.263       .  A
C290        C837   1.501       .  S
C291        O296   1.268       .  A
C291        O294   1.264       .  A
C291        C872   1.491       .  S
Cd292       O299   2.432       .  S
Cd292       O298   2.443       .  S
Cd292       O297   2.429       .  S
Cd292       O293   2.483       .  S
Cd292       O296   2.493       .  S
Cd292       O294   2.467       .  S
C295        O299   1.265       .  A
C295       C2216   1.505       .  S
O300        C303   1.269       .  A
O300       Cd305   2.489       .  S
C301        O310   1.265       .  A
C301        O306   1.269       .  A
C301        C956   1.498       .  S
O302        C308   1.269       .  A
O302       Cd305   2.470       .  S
C303        O311   1.264       .  A
C303        C816   1.485       .  S
C304        O309   1.269       .  A
C304        O307   1.265       .  A
C304       C1817   1.489       .  S
Cd305       O312   2.451       .  S
Cd305       O311   2.430       .  S
Cd305       O310   2.439       .  S
Cd305       O306   2.492       .  S
Cd305       O309   2.500       .  S
Cd305       O307   2.438       .  S
C308        O312   1.265       .  A
C308        C865   1.495       .  S
O313        C316   1.270       .  A
O313       Cd318   2.488       .  S
C314        O323   1.264   1_556  A
C314        O319   1.270   1_556  A
C314        C760   1.486       .  S
O315        C321   1.270       .  A
O315       Cd318   2.487       .  S
C316        O324   1.265       .  A
C316       C1005   1.492       .  S
C317        O322   1.269       .  A
C317        O320   1.264       .  A
C317       C2041   1.484       .  S
Cd318       O325   2.451       .  S
Cd318       O324   2.444       .  S
Cd318       O323   2.423       .  S
Cd318       O319   2.506       .  S
Cd318       O322   2.485       .  S
Cd318       O320   2.441       .  S
C321        O325   1.266       .  A
C321        C788   1.493       .  S
O326        C329   1.267       .  A
O326       Cd331   2.490       .  S
C327        O336   1.265       .  A
C327        O332   1.267       .  A
C327       C1348   1.497       .  S
O328        C334   1.267       .  A
O328       Cd331   2.490       .  S
C329        O337   1.265       .  A
C329        C732   1.488   1_556  S
C330        O335   1.268       .  A
C330        O333   1.262       .  A
C330       C1649   1.491       .  S
Cd331       O338   2.479       .  S
Cd331       O337   2.450       .  S
Cd331       O336   2.456       .  S
Cd331       O332   2.489       .  S
Cd331       O335   2.507       .  S
Cd331       O333   2.444       .  S
C334        O338   1.267       .  A
C334        C781   1.502       .  S
O339        C342   1.269       .  A
O339       Cd344   2.483       .  S
C340        O349   1.264       .  A
C340        O345   1.269       .  A
C340       C1033   1.495       .  S
O341        C347   1.269       .  A
O341       Cd344   2.501       .  S
C342        O350   1.266       .  A
C342        C669   1.495       .  S
C343        O348   1.269       .  A
C343        O346   1.265       .  A
C343       C1992   1.495       .  S
Cd344       O351   2.431       .  S
Cd344       O350   2.456       .  S
Cd344       O349   2.447       .  S
Cd344       O345   2.504       .  S
Cd344       O348   2.497       .  S
Cd344       O346   2.449       .  S
C347        O351   1.264       .  A
C347        C704   1.486       .  S
O352        C355   1.268       .  A
O352       Cd357   2.473       .  S
C353        O362   1.265       .  A
C353        O358   1.269       .  A
C353        C893   1.494       .  S
O354        C360   1.272       .  A
O354       Cd357   2.522       .  S
C355        O363   1.265       .  A
C355        C648   1.482       .  S
C356        O361   1.271       .  A
C356        O359   1.265       .  A
C356        C697   1.503       .  S
Cd357       O364   2.418       .  S
Cd357       O363   2.437       .  S
Cd357       O362   2.438       .  S
Cd357       O358   2.490       .  S
Cd357       O361   2.509       .  S
Cd357       O359   2.453       .  S
C360        O364   1.264       .  A
C360       C2328   1.492       .  S
O365        C368   1.266       .  A
O365       Cd370   2.483       .  S
C366        O375   1.266       .  A
C366        O371   1.266       .  A
C366       C1796   1.482       .  S
O367        C373   1.267       .  A
O367       Cd370   2.496       .  S
C368        O376   1.263       .  A
C368        C753   1.486       .  S
C369        O374   1.268       .  A
C369        O372   1.266       .  A
C369        C613   1.497       .  S
Cd370       O377   2.436       .  S
Cd370       O376   2.447       .  S
Cd370       O375   2.460       .  S
Cd370       O371   2.461       .  S
Cd370       O374   2.485       .  S
Cd370       O372   2.451       .  S
C373        O377   1.262       .  A
C373       C1096   1.484       .  S
O378        C381   1.267       .  A
O378       Cd383   2.481       .  S
C379        O388   1.266       .  A
C379        O384   1.267       .  A
C379        C676   1.503       .  S
O380        C386   1.268       .  A
O380       Cd383   2.511       .  S
C381        O389   1.264       .  A
C381       C2181   1.484       .  S
C382        O387   1.269       .  A
C382        O385   1.265       .  A
C382        C620   1.494       .  S
Cd383       O390   2.438       .  S
Cd383       O389   2.436       .  S
Cd383       O388   2.451       .  S
Cd383       O384   2.494       .  S
Cd383       O387   2.496       .  S
Cd383       O385   2.455       .  S
C386        O390   1.263       .  A
C386       C1257   1.488       .  S
O391        C394   1.270       .  A
O391       Cd396   2.490       .  S
C392        O401   1.265       .  A
C392        O397   1.269       .  A
C392       C2132   1.491       .  S
O393        C399   1.269       .  A
O393       Cd396   2.483       .  S
C394        O402   1.265       .  A
C394        C641   1.497       .  S
C395        O400   1.269       .  A
C395        O398   1.265       .  A
C395        C592   1.488       .  S
Cd396       O403   2.435       .  S
Cd396       O402   2.439       .  S
Cd396       O401   2.460       .  S
Cd396       O397   2.482       .  S
Cd396       O400   2.479       .  S
Cd396       O398   2.438       .  S
C399        O403   1.265       .  A
C399       C1208   1.486       .  S
O404        C407   1.270       .  A
O404       Cd409   2.497       .  S
C405        O414   1.264       .  A
C405        O410   1.270       .  A
C405        C557   1.496       .  S
O406        C412   1.268       .  A
O406       Cd409   2.468       .  S
C407        O415   1.264       .  A
C407       C1537   1.499       .  S
C408        O413   1.267       .  A
C408        O411   1.265       .  A
C408        C585   1.488       .  S
Cd409       O416   2.440       .  S
Cd409       O415   2.450       .  S
Cd409       O414   2.445       .  S
Cd409       O410   2.509       .  S
Cd409       O413   2.472       .  S
Cd409       O411   2.451       .  S
C412        O416   1.266       .  A
C412        C809   1.486       .  S
O417        C420   1.269       .  A
O417       Cd422   2.492       .  S
C418        O427   1.260       .  A
C418        O423   1.266       .  A
C418        C501   1.502       .  S
O419        C425   1.267       .  A
O419       Cd422   2.514       .  S
C420        O428   1.266       .  A
C420       C1488   1.492       .  S
C421        O426   1.270       .  A
C421        O424   1.265       .  A
C421        C844   1.500       .  S
Cd422       O429   2.472       .  S
Cd422       O428   2.428       .  S
Cd422       O427   2.439       .  S
Cd422       O423   2.517       .  S
Cd422       O426   2.498       .  S
Cd422       O424   2.442       .  S
C425        O429   1.263       .  A
C425        C529   1.495       .  S
O430        C433   1.268       .  A
O430       Cd435   2.508       .  S
C431        O440   1.265       .  A
C431        O436   1.269       .  A
C431        C725   1.495       .  S
O432        C438   1.268       .  A
O432       Cd435   2.514       .  S
C433        O441   1.265       .  A
C433       C1845   1.498       .  S
C434        O439   1.268       .  A
C434        O437   1.266       .  A
C434        C536   1.499       .  S
Cd435       O442   2.467       .  S
Cd435       O441   2.480       .  S
Cd435       O440   2.459       .  S
Cd435       O436   2.496       .  S
Cd435       O439   2.483       .  S
Cd435       O437   2.483       .  S
C438        O442   1.263       .  A
C438       C1145   1.496       .  S
O443        C446   1.270       .  A
O443       Cd448   2.461       .  S
C444        O453   1.265       .  A
C444        O449   1.269       .  A
C444        C508   1.493       .  S
O445        C451   1.270       .  A
O445       Cd448   2.484       .  S
C446        O454   1.266       .  A
C446       C1404   1.483       .  S
C447        O452   1.271       .  A
C447        O450   1.263       .  A
C447       C1705   1.491       .  S
Cd448       O455   2.448       .  S
Cd448       O454   2.424       .  S
Cd448       O453   2.432       .  S
Cd448       O449   2.494       .  S
Cd448       O452   2.493       .  S
Cd448       O450   2.410       .  S
C451        O455   1.266       .  A
C451        C473   1.497       .  S
O456        C459   1.270       .  A
O456       Cd461   2.495       .  S
C457        O466   1.264       .  A
C457        O462   1.269       .  A
C457        C564   1.508       .  S
O458        C464   1.270       .  A
O458       Cd461   2.482       .  S
C459        O467   1.265       .  A
C459        C928   1.497       .  S
C460        O465   1.268       .  A
C460        O463   1.265       .  A
C460        C480   1.495       .  S
Cd461       O468   2.439       .  S
Cd461       O467   2.446       .  S
Cd461       O466   2.462       .  S
Cd461       O462   2.507       .  S
Cd461       O465   2.505       .  S
Cd461       O463   2.476       .  S
C464        O468   1.265       .  A
C464       C2412   1.496       .  S
C469        C470   1.411       .  A
C469        C474   1.414       .  A
C469        C487   1.450       .  S
C470        C475   1.502       .  S
C470        C471   1.410       .  A
C471        C472   1.412       .  A
C471        C476   1.451       .  S
C472        C473   1.419       .  A
C472        C488   1.451       .  S
C473        C474   1.417       .  A
C474        C477   1.451       .  S
C475        C478   1.410       .  A
C475        C482   1.411       .  A
C476        N493   1.157       .  T
C477        N495   1.157       .  T
C478        C479   1.413       .  A
C478        C483   1.451       .  S
C479        C480   1.416       .  A
C479        C485   1.450       .  S
C480        C481   1.417       .  A
C481        C482   1.416       .  A
C481        C484   1.450       .  S
C482        C486   1.450       .  S
C483        N490   1.157       .  T
C484        N491   1.157       .  T
C485        N489   1.157       .  T
C486        N492   1.157       .  T
C487        N496   1.157       .  T
C488        N494   1.158       .  T
C497        C498   1.408       .  A
C497        C502   1.415       .  A
C497        C515   1.451       .  S
C498        C503   1.497   1_545  S
C498        C499   1.408       .  A
C499        C500   1.410       .  A
C499        C504   1.452   1_545  S
C500        C501   1.423       .  A
C500        C516   1.454       .  S
C501        C502   1.422       .  A
C502        C505   1.449       .  S
C503        C506   1.408   1_565  A
C503        C510   1.411       .  A
C504        N521   1.158       .  T
C505        N523   1.159       .  T
C506        C507   1.409   1_545  A
C506        C511   1.451       .  S
C507        C508   1.419       .  A
C507        C513   1.452       .  S
C508        C509   1.416       .  A
C509        C510   1.414       .  A
C509        C512   1.450       .  S
C510        C514   1.450       .  S
C511        N518   1.157       .  T
C512        N519   1.158       .  T
C513        N517   1.157       .  T
C514        N520   1.157       .  T
C515        N524   1.156       .  T
C516        N522   1.156       .  T
C525        C526   1.412       .  A
C525        C530   1.414       .  A
C525        C543   1.450       .  S
C526        C531   1.503       .  S
C526        C527   1.411       .  A
C527        C528   1.414       .  A
C527        C532   1.450       .  S
C528        C529   1.417       .  A
C528        C544   1.451       .  S
C529        C530   1.415       .  A
C530        C533   1.450       .  S
C531        C534   1.411       .  A
C531        C538   1.410       .  A
C532        N549   1.157       .  T
C533        N551   1.157       .  T
C534        C535   1.413       .  A
C534        C539   1.450       .  S
C535        C536   1.417       .  A
C535        C541   1.451       .  S
C536        C537   1.420       .  A
C537        C538   1.415       .  A
C537        C540   1.450       .  S
C538        C542   1.451       .  S
C539        N546   1.158       .  T
C540        N547   1.158       .  T
C541        N545   1.157       .  T
C542        N548   1.157       .  T
C543        N552   1.157       .  T
C544        N550   1.158       .  T
C553        C554   1.412       .  A
C553        C558   1.415       .  A
C553        C571   1.450       .  S
C554        C559   1.503       .  S
C554        C555   1.410       .  A
C555        C556   1.412       .  A
C555        C560   1.451       .  S
C556        C557   1.418       .  A
C556        C572   1.452       .  S
C557        C558   1.417       .  A
C558        C561   1.450       .  S
C559        C562   1.409       .  A
C559        C566   1.409       .  A
C560        N577   1.157       .  T
C561        N579   1.158       .  T
C562        C563   1.415       .  A
C562        C567   1.451       .  S
C563        C564   1.422       .  A
C563        C569   1.450       .  S
C564        C565   1.425       .  A
C565        C566   1.414       .  A
C565        C568   1.452       .  S
C566        C570   1.452       .  S
C567        N574   1.157       .  T
C568        N575   1.157       .  T
C569        N573   1.158       .  T
C570        N576   1.158       .  T
C571        N580   1.157       .  T
C572        N578   1.157       .  T
C581        C582   1.409       .  A
C581        C586   1.410       .  A
C581        C599   1.451       .  S
C582        C587   1.495       .  S
C582        C583   1.410       .  A
C583        C584   1.411       .  A
C583        C588   1.451       .  S
C584        C585   1.416       .  A
C584        C600   1.451       .  S
C585        C586   1.417       .  A
C586        C589   1.452       .  S
C587        C590   1.409       .  A
C587        C594   1.410       .  A
C588        N605   1.157       .  T
C589        N607   1.157       .  T
C590        C591   1.410       .  A
C590        C595   1.451       .  S
C591        C592   1.417       .  A
C591        C597   1.452       .  S
C592        C593   1.415       .  A
C593        C594   1.411       .  A
C593        C596   1.451       .  S
C594        C598   1.451       .  S
C595        N602   1.157       .  T
C596        N603   1.157       .  T
C597        N601   1.157       .  T
C598        N604   1.157       .  T
C599        N608   1.157       .  T
C600        N606   1.158       .  T
C609        C610   1.412       .  A
C609        C614   1.414       .  A
C609        C627   1.450       .  S
C610        C615   1.501       .  S
C610        C611   1.409       .  A
C611        C612   1.412       .  A
C611        C616   1.451       .  S
C612        C613   1.420       .  A
C612        C628   1.451       .  S
C613        C614   1.418       .  A
C614        C617   1.451       .  S
C615        C618   1.410       .  A
C615        C622   1.411       .  A
C616        N633   1.157       .  T
C617        N635   1.157       .  T
C618        C619   1.412       .  A
C618        C623   1.451       .  S
C619        C620   1.417       .  A
C619        C625   1.451       .  S
C620        C621   1.417       .  A
C621        C622   1.414       .  A
C621        C624   1.450       .  S
C622        C626   1.451       .  S
C623        N630   1.157       .  T
C624        N631   1.158       .  T
C625        N629   1.157       .  T
C626        N632   1.157       .  T
C627        N636   1.158       .  T
C628        N634   1.158       .  T
C637        C638   1.409       .  A
C637        C642   1.411       .  A
C637        C655   1.452       .  S
C638        C643   1.497       .  S
C638        C639   1.409       .  A
C639        C640   1.414       .  A
C639        C644   1.450       .  S
C640        C641   1.419       .  A
C640        C656   1.451       .  S
C641        C642   1.420       .  A
C642        C645   1.451       .  S
C643        C646   1.411       .  A
C643        C650   1.411       .  A
C644        N661   1.158       .  T
C645        N663   1.158       .  T
C646        C647   1.413       .  A
C646        C651   1.451       .  S
C647        C648   1.413       .  A
C647        C653   1.450       .  S
C648        C649   1.412       .  A
C649        C650   1.409       .  A
C649        C652   1.453       .  S
C650        C654   1.450       .  S
C651        N658   1.156       .  T
C652        N659   1.156       .  T
C653        N657   1.159       .  T
C654        N660   1.158       .  T
C655        N664   1.156       .  T
C656        N662   1.156       .  T
C665        C666   1.411       .  A
C665        C670   1.412       .  A
C665        C683   1.450   1_545  S
C666        C671   1.501   1_545  S
C666        C667   1.410       .  A
C667        C668   1.413       .  A
C667        C672   1.451       .  S
C668        C669   1.417       .  A
C668        C684   1.450       .  S
C669        C670   1.418       .  A
C670        C673   1.452       .  S
C671        C674   1.409       .  A
C671        C678   1.409       .  A
C672        N689   1.156       .  T
C673        N691   1.156   1_545  T
C674        C675   1.412       .  A
C674        C679   1.450   1_565  S
C675        C676   1.421       .  A
C675        C681   1.453       .  S
C676        C677   1.423       .  A
C677        C678   1.415       .  A
C677        C680   1.449       .  S
C678        C682   1.453       .  S
C679        N686   1.159       .  T
C680        N687   1.159       .  T
C681        N685   1.156       .  T
C682        N688   1.156       .  T
C683        N692   1.158       .  T
C684        N690   1.158       .  T
C693        C694   1.409       .  A
C693        C698   1.413       .  A
C693        C711   1.452       .  S
C694        C699   1.502       .  S
C694        C695   1.411       .  A
C695        C696   1.416       .  A
C695        C700   1.450       .  S
C696        C697   1.419       .  A
C696        C712   1.450       .  S
C697        C698   1.422       .  A
C698        C701   1.451       .  S
C699        C702   1.411       .  A
C699        C706   1.414       .  A
C700        N717   1.157       .  T
C701        N719   1.157       .  T
C702        C703   1.410       .  A
C702        C707   1.450       .  S
C703        C704   1.413       .  A
C703        C709   1.452       .  S
C704        C705   1.413       .  A
C705        C706   1.415       .  A
C705        C708   1.451       .  S
C706        C710   1.450       .  S
C707        N714   1.157       .  T
C708        N715   1.157       .  T
C709        N713   1.157       .  T
C710        N716   1.157       .  T
C711        N720   1.157       .  T
C712        N718   1.157       .  T
C721        C722   1.409       .  A
C721        C726   1.413       .  A
C721        C739   1.450       .  S
C722        C727   1.500       .  S
C722        C723   1.411       .  A
C723        C724   1.413       .  A
C723        C728   1.451       .  S
C724        C725   1.417       .  A
C724        C740   1.451       .  S
C725        C726   1.418       .  A
C726        C729   1.450       .  S
C727        C730   1.412       .  A
C727        C734   1.411       .  A
C728        N745   1.157       .  T
C729        N747   1.157       .  T
C730        C731   1.411       .  A
C730        C735   1.450       .  S
C731        C732   1.412       .  A
C731        C737   1.451       .  S
C732        C733   1.416       .  A
C733        C734   1.414       .  A
C733        C736   1.450   1_554  S
C734        C738   1.450       .  S
C735        N742   1.157       .  T
C736        N743   1.157       .  T
C737        N741   1.157       .  T
C738        N744   1.157       .  T
C739        N748   1.157       .  T
C740        N746   1.157       .  T
C749        C750   1.411       .  A
C749        C754   1.409       .  A
C749        C767   1.451       .  S
C750        C755   1.498       .  S
C750        C751   1.411       .  A
C751        C752   1.412       .  A
C751        C756   1.451       .  S
C752        C753   1.416       .  A
C752        C768   1.450       .  S
C753        C754   1.415       .  A
C754        C757   1.452       .  S
C755        C758   1.411       .  A
C755        C762   1.412       .  A
C756        N773   1.157       .  T
C757        N775   1.157       .  T
C758        C759   1.409       .  A
C758        C763   1.451       .  S
C759        C760   1.414       .  A
C759        C765   1.452       .  S
C760        C761   1.415       .  A
C761        C762   1.413       .  A
C761        C764   1.450       .  S
C762        C766   1.450       .  S
C763        N770   1.157       .  T
C764        N771   1.157   1_556  T
C765        N769   1.158       .  T
C766        N772   1.158       .  T
C767        N776   1.158       .  T
C768        N774   1.158       .  T
C777        C778   1.409       .  A
C777        C782   1.414       .  A
C777        C795   1.451   1_655  S
C778        C783   1.503   1_655  S
C778        C779   1.411   1_556  A
C779        C780   1.414   1_554  A
C779        C784   1.451       .  S
C780        C781   1.420       .  A
C780        C796   1.451   1_556  S
C781        C782   1.420       .  A
C782        C785   1.450       .  S
C783        C786   1.411       .  A
C783        C790   1.411   1_556  A
C784        N801   1.157       .  T
C785        N803   1.158       .  T
C786        C787   1.414   1_556  A
C786        C791   1.450       .  S
C787        C788   1.416       .  A
C787        C793   1.450       .  S
C788        C789   1.417       .  A
C789        C790   1.412       .  A
C789        C792   1.451       .  S
C790        C794   1.450       .  S
C791        N798   1.157       .  T
C792        N799   1.157       .  T
C793        N797   1.158       .  T
C794        N800   1.158       .  T
C795        N804   1.157       .  T
C796        N802   1.157       .  T
C805        C806   1.409       .  A
C805        C810   1.409       .  A
C805        C823   1.451       .  S
C806        C811   1.494       .  S
C806        C807   1.410       .  A
C807        C808   1.411       .  A
C807        C812   1.451       .  S
C808        C809   1.416       .  A
C808        C824   1.451       .  S
C809        C810   1.416       .  A
C810        C813   1.452       .  S
C811        C814   1.410       .  A
C811        C818   1.410       .  A
C812        N829   1.157       .  T
C813        N831   1.157       .  T
C814        C815   1.413       .  A
C814        C819   1.450       .  S
C815        C816   1.415       .  A
C815        C821   1.450       .  S
C816        C817   1.416       .  A
C817        C818   1.408       .  A
C817        C820   1.451       .  S
C818        C822   1.453       .  S
C819        N826   1.158       .  T
C820        N827   1.158       .  T
C821        N825   1.157       .  T
C822        N828   1.157       .  T
C823        N832   1.157       .  T
C824        N830   1.158       .  T
C833        C834   1.409       .  A
C833        C838   1.412       .  A
C833        C851   1.451   1_556  S
C834        C839   1.501       .  S
C834        C835   1.409       .  A
C835        C836   1.413       .  A
C835        C840   1.451       .  S
C836        C837   1.421       .  A
C836        C852   1.450       .  S
C837        C838   1.423       .  A
C838        C841   1.452       .  S
C839        C842   1.410   1_556  A
C839        C846   1.409   1_565  A
C840        N857   1.157   1_565  T
C841        N859   1.157       .  T
C842        C843   1.411   1_565  A
C842        C847   1.451       .  S
C843        C844   1.421       .  A
C843        C849   1.453       .  S
C844        C845   1.419       .  A
C845        C846   1.415   1_554  A
C845        C848   1.449       .  S
C846        C850   1.451       .  S
C847        N854   1.159       .  T
C848        N855   1.159       .  T
C849        N853   1.156       .  T
C850        N856   1.156       .  T
C851        N860   1.158       .  T
C852        N858   1.158       .  T
C861        C862   1.409       .  A
C861        C866   1.412       .  A
C861        C879   1.450       .  S
C862        C867   1.498       .  S
C862        C863   1.409       .  A
C863        C864   1.412       .  A
C863        C868   1.452       .  S
C864        C865   1.420       .  A
C864        C880   1.450       .  S
C865        C866   1.418       .  A
C866        C869   1.451       .  S
C867        C870   1.411       .  A
C867        C874   1.409       .  A
C868        N885   1.157       .  T
C869        N887   1.157       .  T
C870        C871   1.413       .  A
C870        C875   1.451       .  S
C871        C872   1.415       .  A
C871        C877   1.450       .  S
C872        C873   1.417       .  A
C873        C874   1.412       .  A
C873        C876   1.450       .  S
C874        C878   1.451       .  S
C875        N882   1.157       .  T
C876        N883   1.157       .  T
C877        N881   1.157       .  T
C878        N884   1.157       .  T
C879        N888   1.158       .  T
C880        N886   1.158       .  T
C889        C890   1.413       .  A
C889        C894   1.414       .  A
C889        C907   1.451       .  S
C890        C895   1.503       .  S
C890        C891   1.411       .  A
C891        C892   1.410       .  A
C891        C896   1.452       .  S
C892        C893   1.419       .  A
C892        C908   1.452       .  S
C893        C894   1.417       .  A
C894        C897   1.450       .  S
C895        C898   1.409       .  A
C895        C902   1.412       .  A
C896        N913   1.157       .  T
C897        N915   1.157       .  T
C898        C899   1.412       .  A
C898        C903   1.452       .  S
C899        C900   1.422       .  A
C899        C905   1.452       .  S
C900        C901   1.418       .  A
C901        C902   1.415       .  A
C901        C904   1.450       .  S
C902        C906   1.451       .  S
C903        N910   1.157       .  T
C904        N911   1.157       .  T
C905        N909   1.158       .  T
C906        N912   1.157       .  T
C907        N916   1.157       .  T
C908        N914   1.157       .  T
C917        C918   1.410       .  A
C917        C922   1.411       .  A
C917        C935   1.452       .  S
C918        C923   1.501       .  S
C918        C919   1.411       .  A
C919        C920   1.414       .  A
C919        C924   1.450       .  S
C920        C921   1.416       .  A
C920        C936   1.450       .  S
C921        C922   1.419       .  A
C922        C925   1.452       .  S
C923        C926   1.409       .  A
C923        C930   1.411       .  A
C924        N941   1.157       .  T
C925        N943   1.157       .  T
C926        C927   1.412       .  A
C926        C931   1.451       .  S
C927        C928   1.419       .  A
C927        C933   1.451       .  S
C928        C929   1.419       .  A
C929        C930   1.414       .  A
C929        C932   1.451       .  S
C930        C934   1.451       .  S
C931        N938   1.157       .  T
C932        N939   1.157       .  T
C933        N937   1.157       .  T
C934        N940   1.157       .  T
C935        N944   1.157       .  T
C936        N942   1.157       .  T
C945        C946   1.410       .  A
C945        C950   1.410       .  A
C945        C963   1.450       .  S
C946        C951   1.500       .  S
C946        C947   1.412       .  A
C947        C948   1.413       .  A
C947        C952   1.452       .  S
C948        C949   1.416       .  A
C948        C964   1.449       .  S
C949        C950   1.417       .  A
C950        C953   1.453   1_556  S
C951        C954   1.411       .  A
C951        C958   1.409       .  A
C952        N969   1.156       .  T
C953        N971   1.156       .  T
C954        C955   1.414       .  A
C954        C959   1.451       .  S
C955        C956   1.419       .  A
C955        C961   1.450       .  S
C956        C957   1.421       .  A
C957        C958   1.410       .  A
C957        C960   1.452       .  S
C958        C962   1.452       .  S
C959        N966   1.157       .  T
C960        N967   1.157       .  T
C961        N965   1.158       .  T
C962        N968   1.157       .  T
C963        N972   1.159       .  T
C964        N970   1.159       .  T
C973        C974   1.412   1_556  A
C973        C978   1.415       .  A
C973        C991   1.450       .  S
C974        C979   1.503   1_545  S
C974        C975   1.410       .  A
C975        C976   1.413       .  A
C975        C980   1.451       .  S
C976        C977   1.418   1_554  A
C976        C992   1.450       .  S
C977        C978   1.416       .  A
C978        C981   1.450       .  S
C979        C982   1.412       .  A
C979        C986   1.410       .  A
C980        N997   1.157       .  T
C981        N999   1.157       .  T
C982        C983   1.416       .  A
C982        C987   1.450   1_565  S
C983        C984   1.417       .  A
C983        C989   1.450       .  S
C984        C985   1.419       .  A
C985        C986   1.412       .  A
C985        C988   1.452       .  S
C986        C990   1.451       .  S
C987        N994   1.157       .  T
C988        N995   1.157       .  T
C989        N993   1.157       .  T
C990        N996   1.157       .  T
C991       N1000   1.157   1_545  T
C992        N998   1.157       .  T
C1001      C1002   1.409       .  A
C1001      C1006   1.412       .  A
C1001      C1019   1.451       .  S
C1002      C1007   1.499       .  S
C1002      C1003   1.411       .  A
C1003      C1004   1.412       .  A
C1003      C1008   1.451       .  S
C1004      C1005   1.415       .  A
C1004      C1020   1.451       .  S
C1005      C1006   1.418       .  A
C1006      C1009   1.451       .  S
C1007      C1010   1.412       .  A
C1007      C1014   1.410       .  A
C1008      N1025   1.157       .  T
C1009      N1027   1.157       .  T
C1010      C1011   1.415       .  A
C1010      C1015   1.449       .  S
C1011      C1012   1.414       .  A
C1011      C1017   1.449       .  S
C1012      C1013   1.413       .  A
C1013      C1014   1.408       .  A
C1013      C1016   1.451       .  S
C1014      C1018   1.451       .  S
C1015      N1022   1.157       .  T
C1016      N1023   1.157       .  T
C1017      N1021   1.157       .  T
C1018      N1024   1.157       .  T
C1019      N1028   1.157       .  T
C1020      N1026   1.157       .  T
C1029      C1030   1.411       .  A
C1029      C1034   1.416       .  A
C1029      C1047   1.450       .  S
C1030      C1035   1.501       .  S
C1030      C1031   1.410       .  A
C1031      C1032   1.411       .  A
C1031      C1036   1.451       .  S
C1032      C1033   1.418       .  A
C1032      C1048   1.452       .  S
C1033      C1034   1.417       .  A
C1034      C1037   1.450       .  S
C1035      C1038   1.411       .  A
C1035      C1042   1.409       .  A
C1036      N1053   1.157       .  T
C1037      N1055   1.157       .  T
C1038      C1039   1.415       .  A
C1038      C1043   1.450       .  S
C1039      C1040   1.417       .  A
C1039      C1045   1.450       .  S
C1040      C1041   1.420       .  A
C1041      C1042   1.412       .  A
C1041      C1044   1.452       .  S
C1042      C1046   1.451       .  S
C1043      N1050   1.157       .  T
C1044      N1051   1.158       .  T
C1045      N1049   1.157       .  T
C1046      N1052   1.157       .  T
C1047      N1056   1.157       .  T
C1048      N1054   1.157       .  T
C1057      C1058   1.413       .  A
C1057      C1062   1.415       .  A
C1057      C1075   1.450       .  S
C1058      C1063   1.506       .  S
C1058      C1059   1.412       .  A
C1059      C1060   1.414       .  A
C1059      C1064   1.451       .  S
C1060      C1061   1.418       .  A
C1060      C1076   1.451       .  S
C1061      C1062   1.416       .  A
C1062      C1065   1.450       .  S
C1063      C1066   1.410       .  A
C1063      C1070   1.412       .  A
C1064      N1081   1.157       .  T
C1065      N1083   1.157       .  T
C1066      C1067   1.415       .  A
C1066      C1071   1.451       .  S
C1067      C1068   1.421       .  A
C1067      C1073   1.451       .  S
C1068      C1069   1.419       .  A
C1069      C1070   1.416       .  A
C1069      C1072   1.451       .  S
C1070      C1074   1.451       .  S
C1071      N1078   1.157       .  T
C1072      N1079   1.157       .  T
C1073      N1077   1.157       .  T
C1074      N1080   1.157       .  T
C1075      N1084   1.157       .  T
C1076      N1082   1.158       .  T
C1085      C1086   1.411       .  A
C1085      C1090   1.409       .  A
C1085      C1103   1.452       .  S
C1086      C1091   1.496       .  S
C1086      C1087   1.411       .  A
C1087      C1088   1.413       .  A
C1087      C1092   1.450       .  S
C1088      C1089   1.415       .  A
C1088      C1104   1.450       .  S
C1089      C1090   1.414       .  A
C1090      C1093   1.452       .  S
C1091      C1094   1.411       .  A
C1091      C1098   1.411       .  A
C1092      N1109   1.157       .  T
C1093      N1111   1.157       .  T
C1094      C1095   1.409       .  A
C1094      C1099   1.451       .  S
C1095      C1096   1.413       .  A
C1095      C1101   1.451       .  S
C1096      C1097   1.414       .  A
C1097      C1098   1.412       .  A
C1097      C1100   1.451       .  S
C1098      C1102   1.450       .  S
C1099      N1106   1.157       .  T
C1100      N1107   1.157       .  T
C1101      N1105   1.157       .  T
C1102      N1108   1.157       .  T
C1103      N1112   1.157       .  T
C1104      N1110   1.157       .  T
C1113      C1114   1.410       .  A
C1113      C1118   1.409       .  A
C1113      C1131   1.451       .  S
C1114      C1119   1.500       .  S
C1114      C1115   1.412       .  A
C1115      C1116   1.415       .  A
C1115      C1120   1.450       .  S
C1116      C1117   1.417       .  A
C1116      C1132   1.450       .  S
C1117      C1118   1.417       .  A
C1118      C1121   1.452       .  S
C1119      C1122   1.412       .  A
C1119      C1126   1.412       .  A
C1120      N1137   1.157       .  T
C1121      N1139   1.157       .  T
C1122      C1123   1.413       .  A
C1122      C1127   1.451       .  S
C1123      C1124   1.414       .  A
C1123      C1129   1.450       .  S
C1124      C1125   1.412       .  A
C1125      C1126   1.411       .  A
C1125      C1128   1.452       .  S
C1126      C1130   1.450       .  S
C1127      N1134   1.157       .  T
C1128      N1135   1.157       .  T
C1129      N1133   1.157       .  T
C1130      N1136   1.157       .  T
C1131      N1140   1.157       .  T
C1132      N1138   1.157       .  T
C1141      C1142   1.411       .  A
C1141      C1146   1.415       .  A
C1141      C1159   1.450       .  S
C1142      C1147   1.505       .  S
C1142      C1143   1.411       .  A
C1143      C1144   1.414       .  A
C1143      C1148   1.450       .  S
C1144      C1145   1.418       .  A
C1144      C1160   1.452       .  S
C1145      C1146   1.416       .  A
C1146      C1149   1.450       .  S
C1147      C1150   1.411       .  A
C1147      C1154   1.412       .  A
C1148      N1165   1.157       .  T
C1149      N1167   1.157       .  T
C1150      C1151   1.416       .  A
C1150      C1155   1.450       .  S
C1151      C1152   1.419       .  A
C1151      C1157   1.451       .  S
C1152      C1153   1.416       .  A
C1153      C1154   1.414       .  A
C1153      C1156   1.451       .  S
C1154      C1158   1.451       .  S
C1155      N1162   1.157       .  T
C1156      N1163   1.157       .  T
C1157      N1161   1.157       .  T
C1158      N1164   1.157       .  T
C1159      N1168   1.157       .  T
C1160      N1166   1.158       .  T
C1169      C1170   1.411       .  A
C1169      C1174   1.414       .  A
C1169      C1187   1.450       .  S
C1170      C1175   1.500   1_655  S
C1170      C1171   1.410       .  A
C1171      C1172   1.412       .  A
C1171      C1176   1.451       .  S
C1172      C1173   1.416       .  A
C1172      C1188   1.451       .  S
C1173      C1174   1.417       .  A
C1174      C1177   1.451       .  S
C1175      C1178   1.410       .  A
C1175      C1182   1.410       .  A
C1176      N1193   1.157       .  T
C1177      N1195   1.158       .  T
C1178      C1179   1.414       .  A
C1178      C1183   1.450       .  S
C1179      C1180   1.417       .  A
C1179      C1185   1.450       .  S
C1180      C1181   1.419       .  A
C1181      C1182   1.413       .  A
C1181      C1184   1.451       .  S
C1182      C1186   1.451       .  S
C1183      N1190   1.157   1_455  T
C1184      N1191   1.157       .  T
C1185      N1189   1.157       .  T
C1186      N1192   1.157       .  T
C1187      N1196   1.157   1_655  T
C1188      N1194   1.157       .  T
C1197      C1198   1.408       .  A
C1197      C1202   1.411       .  A
C1197      C1215   1.450       .  S
C1198      C1203   1.497       .  S
C1198      C1199   1.410       .  A
C1199      C1200   1.413       .  A
C1199      C1204   1.451       .  S
C1200      C1201   1.417       .  A
C1200      C1216   1.450       .  S
C1201      C1202   1.418       .  A
C1202      C1205   1.451       .  S
C1203      C1206   1.411       .  A
C1203      C1210   1.410       .  A
C1204      N1221   1.157       .  T
C1205      N1223   1.157       .  T
C1206      C1207   1.410       .  A
C1206      C1211   1.451       .  S
C1207      C1208   1.416       .  A
C1207      C1213   1.453       .  S
C1208      C1209   1.414       .  A
C1209      C1210   1.413       .  A
C1209      C1212   1.450       .  S
C1210      C1214   1.449       .  S
C1211      N1218   1.157       .  T
C1212      N1219   1.157       .  T
C1213      N1217   1.158       .  T
C1214      N1220   1.157       .  T
C1215      N1224   1.157       .  T
C1216      N1222   1.157       .  T
C1225      C1226   1.414       .  A
C1225      C1230   1.414       .  A
C1225      C1243   1.451       .  S
C1226      C1231   1.500       .  S
C1226      C1227   1.411       .  A
C1227      C1228   1.409       .  A
C1227      C1232   1.451       .  S
C1228      C1229   1.414       .  A
C1228      C1244   1.452   1_554  S
C1229      C1230   1.413       .  A
C1230      C1233   1.450       .  S
C1231      C1234   1.411       .  A
C1231      C1238   1.412       .  A
C1232      N1249   1.157       .  T
C1233      N1251   1.157       .  T
C1234      C1235   1.413       .  A
C1234      C1239   1.450       .  S
C1235      C1236   1.417       .  A
C1235      C1241   1.451       .  S
C1236      C1237   1.417       .  A
C1237      C1238   1.411       .  A
C1237      C1240   1.452       .  S
C1238      C1242   1.452       .  S
C1239      N1246   1.157       .  T
C1240      N1247   1.158       .  T
C1241      N1245   1.157       .  T
C1242      N1248   1.157       .  T
C1243      N1252   1.157       .  T
C1244      N1250   1.158       .  T
C1253      C1254   1.410   1_556  A
C1253      C1258   1.408   1_545  A
C1253      C1271   1.452       .  S
C1254      C1259   1.497       .  S
C1254      C1255   1.411   1_545  A
C1255      C1256   1.415       .  A
C1255      C1260   1.450       .  S
C1256      C1257   1.416   1_554  A
C1256      C1272   1.450       .  S
C1257      C1258   1.414       .  A
C1258      C1261   1.452   1_565  S
C1259      C1262   1.411       .  A
C1259      C1266   1.408       .  A
C1260      N1277   1.157       .  T
C1261      N1279   1.157       .  T
C1262      C1263   1.413       .  A
C1262      C1267   1.451       .  S
C1263      C1264   1.417       .  A
C1263      C1269   1.450       .  S
C1264      C1265   1.417       .  A
C1265      C1266   1.410       .  A
C1265      C1268   1.451       .  S
C1266      C1270   1.450       .  S
C1267      N1274   1.157       .  T
C1268      N1275   1.157       .  T
C1269      N1273   1.158       .  T
C1270      N1276   1.157       .  T
C1271      N1280   1.157       .  T
C1272      N1278   1.157       .  T
C1281      C1282   1.412       .  A
C1281      C1286   1.416       .  A
C1281      C1299   1.449       .  S
C1282      C1287   1.504       .  S
C1282      C1283   1.410       .  A
C1283      C1284   1.412       .  A
C1283      C1288   1.453       .  S
C1284      C1285   1.422       .  A
C1284      C1300   1.450       .  S
C1285      C1286   1.421       .  A
C1286      C1289   1.453       .  S
C1287      C1290   1.410       .  A
C1287      C1294   1.411       .  A
C1288      N1305   1.156       .  T
C1289      N1307   1.156       .  T
C1290      C1291   1.414       .  A
C1290      C1295   1.452       .  S
C1291      C1292   1.421       .  A
C1291      C1297   1.451       .  S
C1292      C1293   1.419       .  A
C1293      C1294   1.414       .  A
C1293      C1296   1.451       .  S
C1294      C1298   1.450       .  S
C1295      N1302   1.157       .  T
C1296      N1303   1.157       .  T
C1297      N1301   1.158       .  T
C1298      N1304   1.158       .  T
C1299      N1308   1.159       .  T
C1300      N1306   1.159       .  T
C1309      C1310   1.409       .  A
C1309      C1314   1.409       .  A
C1309      C1327   1.451       .  S
C1310      C1315   1.499       .  S
C1310      C1311   1.412       .  A
C1311      C1312   1.415       .  A
C1311      C1316   1.450       .  S
C1312      C1313   1.416       .  A
C1312      C1328   1.451       .  S
C1313      C1314   1.416       .  A
C1314      C1317   1.451       .  S
C1315      C1318   1.410       .  A
C1315      C1322   1.409       .  A
C1316      N1333   1.157       .  T
C1317      N1335   1.157       .  T
C1318      C1319   1.413       .  A
C1318      C1323   1.451       .  S
C1319      C1320   1.418       .  A
C1319      C1325   1.450       .  S
C1320      C1321   1.420       .  A
C1321      C1322   1.412       .  A
C1321      C1324   1.451       .  S
C1322      C1326   1.452       .  S
C1323      N1330   1.157       .  T
C1324      N1331   1.158       .  T
C1325      N1329   1.157       .  T
C1326      N1332   1.157       .  T
C1327      N1336   1.157       .  T
C1328      N1334   1.157       .  T
C1337      C1338   1.409       .  A
C1337      C1342   1.411       .  A
C1337      C1355   1.451       .  S
C1338      C1343   1.498       .  S
C1338      C1339   1.409       .  A
C1339      C1340   1.413       .  A
C1339      C1344   1.451       .  S
C1340      C1341   1.420       .  A
C1340      C1356   1.451       .  S
C1341      C1342   1.421       .  A
C1342      C1345   1.452       .  S
C1343      C1346   1.408       .  A
C1343      C1350   1.409       .  A
C1344      N1361   1.157       .  T
C1345      N1363   1.158       .  T
C1346      C1347   1.410       .  A
C1346      C1351   1.452       .  S
C1347      C1348   1.420       .  A
C1347      C1353   1.451       .  S
C1348      C1349   1.420       .  A
C1349      C1350   1.415       .  A
C1349      C1352   1.450       .  S
C1350      C1354   1.450       .  S
C1351      N1358   1.157       .  T
C1352      N1359   1.157       .  T
C1353      N1357   1.157       .  T
C1354      N1360   1.157       .  T
C1355      N1364   1.157       .  T
C1356      N1362   1.157       .  T
C1365      C1366   1.409       .  A
C1365      C1370   1.410       .  A
C1365      C1383   1.452       .  S
C1366      C1371   1.499       .  S
C1366      C1367   1.410       .  A
C1367      C1368   1.416       .  A
C1367      C1372   1.450       .  S
C1368      C1369   1.418       .  A
C1368      C1384   1.450       .  S
C1369      C1370   1.419       .  A
C1370      C1373   1.452       .  S
C1371      C1374   1.412       .  A
C1371      C1378   1.411       .  A
C1372      N1389   1.157       .  T
C1373      N1391   1.157       .  T
C1374      C1375   1.412       .  A
C1374      C1379   1.450       .  S
C1375      C1376   1.411       .  A
C1375      C1381   1.450       .  S
C1376      C1377   1.414       .  A
C1377      C1378   1.412       .  A
C1377      C1380   1.452       .  S
C1378      C1382   1.450       .  S
C1379      N1386   1.157       .  T
C1380      N1387   1.158       .  T
C1381      N1385   1.157       .  T
C1382      N1388   1.157       .  T
C1383      N1392   1.157       .  T
C1384      N1390   1.157       .  T
C1393      C1394   1.410       .  A
C1393      C1398   1.411       .  A
C1393      C1411   1.450       .  S
C1394      C1399   1.491       .  S
C1394      C1395   1.409       .  A
C1395      C1396   1.407       .  A
C1395      C1400   1.452       .  S
C1396      C1397   1.415       .  A
C1396      C1412   1.452       .  S
C1397      C1398   1.414       .  A
C1398      C1401   1.450       .  S
C1399      C1402   1.409       .  A
C1399      C1406   1.410       .  A
C1400      N1417   1.157       .  T
C1401      N1419   1.157       .  T
C1402      C1403   1.408       .  A
C1402      C1407   1.451       .  S
C1403      C1404   1.415       .  A
C1403      C1409   1.452       .  S
C1404      C1405   1.415       .  A
C1405      C1406   1.410       .  A
C1405      C1408   1.451       .  S
C1406      C1410   1.450       .  S
C1407      N1414   1.157       .  T
C1408      N1415   1.157       .  T
C1409      N1413   1.157       .  T
C1410      N1416   1.157       .  T
C1411      N1420   1.157       .  T
C1412      N1418   1.157       .  T
C1421      C1422   1.413       .  A
C1421      C1426   1.411       .  A
C1421      C1439   1.452       .  S
C1422      C1427   1.502       .  S
C1422      C1423   1.412       .  A
C1423      C1424   1.414       .  A
C1423      C1428   1.451       .  S
C1424      C1425   1.417       .  A
C1424      C1440   1.451       .  S
C1425      C1426   1.416       .  A
C1426      C1429   1.452       .  S
C1427      C1430   1.413       .  A
C1427      C1434   1.415       .  A
C1428      N1445   1.157       .  T
C1429      N1447   1.158       .  T
C1430      C1431   1.410       .  A
C1430      C1435   1.451       .  S
C1431      C1432   1.412       .  A
C1431      C1437   1.452       .  S
C1432      C1433   1.410       .  A
C1433      C1434   1.412       .  A
C1433      C1436   1.450       .  S
C1434      C1438   1.450       .  S
C1435      N1442   1.157       .  T
C1436      N1443   1.157       .  T
C1437      N1441   1.157       .  T
C1438      N1444   1.157       .  T
C1439      N1448   1.157       .  T
C1440      N1446   1.157       .  T
C1449      C1450   1.410       .  A
C1449      C1454   1.414       .  A
C1449      C1467   1.450       .  S
C1450      C1455   1.496       .  S
C1450      C1451   1.409       .  A
C1451      C1452   1.409       .  A
C1451      C1456   1.452       .  S
C1452      C1453   1.417       .  A
C1452      C1468   1.451       .  S
C1453      C1454   1.418       .  A
C1454      C1457   1.451       .  S
C1455      C1458   1.410       .  A
C1455      C1462   1.409       .  A
C1456      N1473   1.157       .  T
C1457      N1475   1.157       .  T
C1458      C1459   1.412       .  A
C1458      C1463   1.451       .  S
C1459      C1460   1.416       .  A
C1459      C1465   1.450       .  S
C1460      C1461   1.417       .  A
C1461      C1462   1.410       .  A
C1461      C1464   1.452       .  S
C1462      C1466   1.451       .  S
C1463      N1470   1.157       .  T
C1464      N1471   1.157       .  T
C1465      N1469   1.157       .  T
C1466      N1472   1.157       .  T
C1467      N1476   1.158       .  T
C1468      N1474   1.157       .  T
C1477      C1478   1.412   1_456  A
C1477      C1482   1.414       .  A
C1477      C1495   1.451   1_455  S
C1478      C1483   1.499       .  S
C1478      C1479   1.409   1_655  A
C1479      C1480   1.410   1_554  A
C1479      C1484   1.451       .  S
C1480      C1481   1.418       .  A
C1480      C1496   1.452       .  S
C1481      C1482   1.418       .  A
C1482      C1485   1.451       .  S
C1483      C1486   1.410       .  A
C1483      C1490   1.412       .  A
C1484      N1501   1.157       .  T
C1485      N1503   1.158       .  T
C1486      C1487   1.408       .  A
C1486      C1491   1.452   1_554  S
C1487      C1488   1.417       .  A
C1487      C1493   1.453       .  S
C1488      C1489   1.417       .  A
C1489      C1490   1.415       .  A
C1489      C1492   1.450       .  S
C1490      C1494   1.450       .  S
C1491      N1498   1.157       .  T
C1492      N1499   1.157       .  T
C1493      N1497   1.157   1_554  T
C1494      N1500   1.157   1_655  T
C1495      N1504   1.157       .  T
C1496      N1502   1.157       .  T
C1505      C1506   1.409       .  A
C1505      C1510   1.409       .  A
C1505      C1523   1.452   1_556  S
C1506      C1511   1.502       .  S
C1506      C1507   1.413       .  A
C1507      C1508   1.418       .  A
C1507      C1512   1.450       .  S
C1508      C1509   1.418       .  A
C1508      C1524   1.450       .  S
C1509      C1510   1.419       .  A
C1510      C1513   1.452       .  S
C1511      C1514   1.410       .  A
C1511      C1518   1.413   1_556  A
C1512      N1529   1.157       .  T
C1513      N1531   1.157       .  T
C1514      C1515   1.411   1_556  A
C1514      C1519   1.451       .  S
C1515      C1516   1.417       .  A
C1515      C1521   1.452       .  S
C1516      C1517   1.417       .  A
C1517      C1518   1.415       .  A
C1517      C1520   1.450       .  S
C1518      C1522   1.451   1_554  S
C1519      N1526   1.157       .  T
C1520      N1527   1.158       .  T
C1521      N1525   1.157       .  T
C1522      N1528   1.157       .  T
C1523      N1532   1.157       .  T
C1524      N1530   1.158       .  T
C1533      C1534   1.408       .  A
C1533      C1538   1.413       .  A
C1533      C1551   1.451       .  S
C1534      C1539   1.500       .  S
C1534      C1535   1.410       .  A
C1535      C1536   1.413       .  A
C1535      C1540   1.451       .  S
C1536      C1537   1.419       .  A
C1536      C1552   1.451       .  S
C1537      C1538   1.421       .  A
C1538      C1541   1.451       .  S
C1539      C1542   1.410       .  A
C1539      C1546   1.410       .  A
C1540      N1557   1.157       .  T
C1541      N1559   1.158       .  T
C1542      C1543   1.411       .  A
C1542      C1547   1.451       .  S
C1543      C1544   1.418       .  A
C1543      C1549   1.452       .  S
C1544      C1545   1.417       .  A
C1545      C1546   1.414       .  A
C1545      C1548   1.450       .  S
C1546      C1550   1.450       .  S
C1547      N1554   1.157       .  T
C1548      N1555   1.157       .  T
C1549      N1553   1.158       .  T
C1550      N1556   1.157       .  T
C1551      N1560   1.157       .  T
C1552      N1558   1.157       .  T
C1561      C1562   1.409       .  A
C1561      C1566   1.412       .  A
C1561      C1579   1.451       .  S
C1562      C1567   1.499       .  S
C1562      C1563   1.409       .  A
C1563      C1564   1.413       .  A
C1563      C1568   1.451       .  S
C1564      C1565   1.418       .  A
C1564      C1580   1.450       .  S
C1565      C1566   1.420       .  A
C1566      C1569   1.452       .  S
C1567      C1570   1.410       .  A
C1567      C1574   1.410       .  A
C1568      N1585   1.157       .  T
C1569      N1587   1.158       .  T
C1570      C1571   1.414       .  A
C1570      C1575   1.450       .  S
C1571      C1572   1.416       .  A
C1571      C1577   1.450       .  S
C1572      C1573   1.418       .  A
C1573      C1574   1.410       .  A
C1573      C1576   1.451       .  S
C1574      C1578   1.452       .  S
C1575      N1582   1.157       .  T
C1576      N1583   1.157       .  T
C1577      N1581   1.157       .  T
C1578      N1584   1.157       .  T
C1579      N1588   1.157       .  T
C1580      N1586   1.157       .  T
C1589      C1590   1.411       .  A
C1589      C1594   1.412       .  A
C1589      C1607   1.451       .  S
C1590      C1595   1.501       .  S
C1590      C1591   1.411       .  A
C1591      C1592   1.414       .  A
C1591      C1596   1.451       .  S
C1592      C1593   1.418       .  A
C1592      C1608   1.451       .  S
C1593      C1594   1.416       .  A
C1594      C1597   1.451       .  S
C1595      C1598   1.411       .  A
C1595      C1602   1.411       .  A
C1596      N1613   1.157       .  T
C1597      N1615   1.157       .  T
C1598      C1599   1.412       .  A
C1598      C1603   1.451       .  S
C1599      C1600   1.419       .  A
C1599      C1605   1.452       .  S
C1600      C1601   1.418       .  A
C1601      C1602   1.413       .  A
C1601      C1604   1.451       .  S
C1602      C1606   1.451       .  S
C1603      N1610   1.157       .  T
C1604      N1611   1.157       .  T
C1605      N1609   1.158       .  T
C1606      N1612   1.157       .  T
C1607      N1616   1.157       .  T
C1608      N1614   1.158       .  T
C1617      C1618   1.410       .  A
C1617      C1622   1.409       .  A
C1617      C1635   1.451       .  S
C1618      C1623   1.498       .  S
C1618      C1619   1.413       .  A
C1619      C1620   1.413       .  A
C1619      C1624   1.450       .  S
C1620      C1621   1.414       .  A
C1620      C1636   1.451       .  S
C1621      C1622   1.415       .  A
C1622      C1625   1.452       .  S
C1623      C1626   1.410       .  A
C1623      C1630   1.411       .  A
C1624      N1641   1.157       .  T
C1625      N1643   1.157       .  T
C1626      C1627   1.410       .  A
C1626      C1631   1.452       .  S
C1627      C1628   1.418       .  A
C1627      C1633   1.452       .  S
C1628      C1629   1.416       .  A
C1629      C1630   1.413       .  A
C1629      C1632   1.450       .  S
C1630      C1634   1.450       .  S
C1631      N1638   1.157       .  T
C1632      N1639   1.157       .  T
C1633      N1637   1.157       .  T
C1634      N1640   1.157       .  T
C1635      N1644   1.157       .  T
C1636      N1642   1.157       .  T
C1645      C1646   1.409       .  A
C1645      C1650   1.410       .  A
C1645      C1663   1.451       .  S
C1646      C1651   1.498       .  S
C1646      C1647   1.411       .  A
C1647      C1648   1.413       .  A
C1647      C1652   1.450       .  S
C1648      C1649   1.416       .  A
C1648      C1664   1.450       .  S
C1649      C1650   1.417       .  A
C1650      C1653   1.452       .  S
C1651      C1654   1.411       .  A
C1651      C1658   1.409       .  A
C1652      N1669   1.157       .  T
C1653      N1671   1.157       .  T
C1654      C1655   1.412       .  A
C1654      C1659   1.451       .  S
C1655      C1656   1.416       .  A
C1655      C1661   1.451       .  S
C1656      C1657   1.418       .  A
C1657      C1658   1.412       .  A
C1657      C1660   1.451       .  S
C1658      C1662   1.450       .  S
C1659      N1666   1.157       .  T
C1660      N1667   1.157       .  T
C1661      N1665   1.157       .  T
C1662      N1668   1.157       .  T
C1663      N1672   1.157       .  T
C1664      N1670   1.157       .  T
C1673      C1674   1.408       .  A
C1673      C1678   1.411   1_455  A
C1673      C1691   1.452       .  S
C1674      C1679   1.501       .  S
C1674      C1675   1.411       .  A
C1675      C1676   1.416   1_455  A
C1675      C1680   1.451       .  S
C1676      C1677   1.420       .  A
C1676      C1692   1.450       .  S
C1677      C1678   1.422       .  A
C1678      C1681   1.452       .  S
C1679      C1682   1.411       .  A
C1679      C1686   1.409       .  A
C1680      N1697   1.157       .  T
C1681      N1699   1.157       .  T
C1682      C1683   1.415       .  A
C1682      C1687   1.450       .  S
C1683      C1684   1.418       .  A
C1683      C1689   1.451       .  S
C1684      C1685   1.420       .  A
C1685      C1686   1.411       .  A
C1685      C1688   1.452       .  S
C1686      C1690   1.452       .  S
C1687      N1694   1.157   1_455  T
C1688      N1695   1.157       .  T
C1689      N1693   1.157       .  T
C1690      N1696   1.157       .  T
C1691      N1700   1.157       .  T
C1692      N1698   1.158       .  T
C1701      C1702   1.408       .  A
C1701      C1706   1.408   1_545  A
C1701      C1719   1.452       .  S
C1702      C1707   1.496       .  S
C1702      C1703   1.410   1_545  A
C1703      C1704   1.413       .  A
C1703      C1708   1.450       .  S
C1704      C1705   1.416       .  A
C1704      C1720   1.450       .  S
C1705      C1706   1.420       .  A
C1706      C1709   1.453       .  S
C1707      C1710   1.408       .  A
C1707      C1714   1.409       .  A
C1708      N1725   1.157       .  T
C1709      N1727   1.158       .  T
C1710      C1711   1.411       .  A
C1710      C1715   1.451       .  S
C1711      C1712   1.419       .  A
C1711      C1717   1.451       .  S
C1712      C1713   1.419       .  A
C1713      C1714   1.412       .  A
C1713      C1716   1.451       .  S
C1714      C1718   1.451       .  S
C1715      N1722   1.157       .  T
C1716      N1723   1.157       .  T
C1717      N1721   1.157       .  T
C1718      N1724   1.157   1_545  T
C1719      N1728   1.157       .  T
C1720      N1726   1.157       .  T
C1729      C1730   1.410       .  A
C1729      C1734   1.416       .  A
C1729      C1747   1.450       .  S
C1730      C1735   1.501   1_455  S
C1730      C1731   1.408       .  A
C1731      C1732   1.411       .  A
C1731      C1736   1.453   1_455  S
C1732      C1733   1.422       .  A
C1732      C1748   1.451       .  S
C1733      C1734   1.420       .  A
C1734      C1737   1.450       .  S
C1735      C1738   1.412       .  A
C1735      C1742   1.411       .  A
C1736      N1753   1.157       .  T
C1737      N1755   1.157       .  T
C1738      C1739   1.415       .  A
C1738      C1743   1.451       .  S
C1739      C1740   1.415       .  A
C1739      C1745   1.449       .  S
C1740      C1741   1.413       .  A
C1741      C1742   1.409       .  A
C1741      C1744   1.453       .  S
C1742      C1746   1.450   1_655  S
C1743      N1750   1.156       .  T
C1744      N1751   1.157       .  T
C1745      N1749   1.158       .  T
C1746      N1752   1.158       .  T
C1747      N1756   1.158       .  T
C1748      N1754   1.158       .  T
C1757      C1758   1.412       .  A
C1757      C1762   1.411       .  A
C1757      C1775   1.452       .  S
C1758      C1763   1.500       .  S
C1758      C1759   1.411       .  A
C1759      C1760   1.411       .  A
C1759      C1764   1.450       .  S
C1760      C1761   1.416       .  A
C1760      C1776   1.453       .  S
C1761      C1762   1.415       .  A
C1762      C1765   1.450       .  S
C1763      C1766   1.409       .  A
C1763      C1770   1.411       .  A
C1764      N1781   1.158       .  T
C1765      N1783   1.158       .  T
C1766      C1767   1.410       .  A
C1766      C1771   1.452       .  S
C1767      C1768   1.420       .  A
C1767      C1773   1.452       .  S
C1768      C1769   1.419       .  A
C1769      C1770   1.415       .  A
C1769      C1772   1.450       .  S
C1770      C1774   1.451       .  S
C1771      N1778   1.158       .  T
C1772      N1779   1.158       .  T
C1773      N1777   1.157       .  T
C1774      N1780   1.157       .  T
C1775      N1784   1.156       .  T
C1776      N1782   1.156       .  T
C1785      C1786   1.413       .  A
C1785      C1790   1.413       .  A
C1785      C1803   1.451       .  S
C1786      C1791   1.501       .  S
C1786      C1787   1.413       .  A
C1787      C1788   1.410       .  A
C1787      C1792   1.452       .  S
C1788      C1789   1.413       .  A
C1788      C1804   1.450       .  S
C1789      C1790   1.415       .  A
C1790      C1793   1.452       .  S
C1791      C1794   1.414       .  A
C1791      C1798   1.414       .  A
C1792      N1809   1.157       .  T
C1793      N1811   1.158       .  T
C1794      C1795   1.412       .  A
C1794      C1799   1.451       .  S
C1795      C1796   1.412       .  A
C1795      C1801   1.451       .  S
C1796      C1797   1.412       .  A
C1797      C1798   1.410       .  A
C1797      C1800   1.452       .  S
C1798      C1802   1.451       .  S
C1799      N1806   1.157       .  T
C1800      N1807   1.157       .  T
C1801      N1805   1.157       .  T
C1802      N1808   1.157       .  T
C1803      N1812   1.157       .  T
C1804      N1810   1.157       .  T
C1813      C1814   1.411       .  A
C1813      C1818   1.415       .  A
C1813      C1831   1.450       .  S
C1814      C1819   1.498       .  S
C1814      C1815   1.410       .  A
C1815      C1816   1.409       .  A
C1815      C1820   1.452       .  S
C1816      C1817   1.415       .  A
C1816      C1832   1.452       .  S
C1817      C1818   1.416       .  A
C1818      C1821   1.450       .  S
C1819      C1822   1.412       .  A
C1819      C1826   1.410       .  A
C1820      N1837   1.157       .  T
C1821      N1839   1.157       .  T
C1822      C1823   1.411       .  A
C1822      C1827   1.451       .  S
C1823      C1824   1.415       .  A
C1823      C1829   1.451       .  S
C1824      C1825   1.417       .  A
C1825      C1826   1.412       .  A
C1825      C1828   1.452       .  S
C1826      C1830   1.450       .  S
C1827      N1834   1.157       .  T
C1828      N1835   1.158       .  T
C1829      N1833   1.157       .  T
C1830      N1836   1.157       .  T
C1831      N1840   1.157       .  T
C1832      N1838   1.157       .  T
C1841      C1842   1.412       .  A
C1841      C1846   1.416       .  A
C1841      C1859   1.450       .  S
C1842      C1847   1.507       .  S
C1842      C1843   1.412       .  A
C1843      C1844   1.415       .  A
C1843      C1848   1.450       .  S
C1844      C1845   1.416       .  A
C1844      C1860   1.450       .  S
C1845      C1846   1.418       .  A
C1846      C1849   1.451       .  S
C1847      C1850   1.411       .  A
C1847      C1854   1.413       .  A
C1848      N1865   1.157       .  T
C1849      N1867   1.158       .  T
C1850      C1851   1.413       .  A
C1850      C1855   1.451       .  S
C1851      C1852   1.417       .  A
C1851      C1857   1.452       .  S
C1852      C1853   1.417       .  A
C1853      C1854   1.418       .  A
C1853      C1856   1.450       .  S
C1854      C1858   1.450       .  S
C1855      N1862   1.157       .  T
C1856      N1863   1.157       .  T
C1857      N1861   1.157       .  T
C1858      N1864   1.157       .  T
C1859      N1868   1.157       .  T
C1860      N1866   1.157       .  T
C1869      C1870   1.412       .  A
C1869      C1874   1.410       .  A
C1869      C1887   1.452       .  S
C1870      C1875   1.500       .  S
C1870      C1871   1.412       .  A
C1871      C1872   1.414       .  A
C1871      C1876   1.450       .  S
C1872      C1873   1.415       .  A
C1872      C1888   1.450       .  S
C1873      C1874   1.415       .  A
C1874      C1877   1.452       .  S
C1875      C1878   1.412       .  A
C1875      C1882   1.411       .  A
C1876      N1893   1.157       .  T
C1877      N1895   1.157       .  T
C1878      C1879   1.413       .  A
C1878      C1883   1.451       .  S
C1879      C1880   1.416       .  A
C1879      C1885   1.451       .  S
C1880      C1881   1.416       .  A
C1881      C1882   1.411       .  A
C1881      C1884   1.451       .  S
C1882      C1886   1.451       .  S
C1883      N1890   1.157       .  T
C1884      N1891   1.157       .  T
C1885      N1889   1.157       .  T
C1886      N1892   1.157       .  T
C1887      N1896   1.157       .  T
C1888      N1894   1.157       .  T
C1897      C1898   1.411       .  A
C1897      C1902   1.415       .  A
C1897      C1915   1.451       .  S
C1898      C1903   1.503       .  S
C1898      C1899   1.410       .  A
C1899      C1900   1.412       .  A
C1899      C1904   1.452       .  S
C1900      C1901   1.421       .  A
C1900      C1916   1.451       .  S
C1901      C1902   1.419       .  A
C1902      C1905   1.451       .  S
C1903      C1906   1.411       .  A
C1903      C1910   1.412       .  A
C1904      N1921   1.157       .  T
C1905      N1923   1.157       .  T
C1906      C1907   1.410       .  A
C1906      C1911   1.449       .  S
C1907      C1908   1.416       .  A
C1907      C1913   1.454       .  S
C1908      C1909   1.417       .  A
C1909      C1910   1.415       .  A
C1909      C1912   1.448       .  S
C1910      C1914   1.452       .  S
C1911      N1918   1.159       .  T
C1912      N1919   1.160       .  T
C1913      N1917   1.155       .  T
C1914      N1920   1.155       .  T
C1915      N1924   1.157       .  T
C1916      N1922   1.158       .  T
C1925      C1926   1.410       .  A
C1925      C1930   1.415       .  A
C1925      C1943   1.450   1_565  S
C1926      C1931   1.503   1_565  S
C1926      C1927   1.410       .  A
C1927      C1928   1.413       .  A
C1927      C1932   1.451       .  S
C1928      C1929   1.419       .  A
C1928      C1944   1.451       .  S
C1929      C1930   1.419       .  A
C1930      C1933   1.451       .  S
C1931      C1934   1.410       .  A
C1931      C1938   1.409       .  A
C1932      N1949   1.157       .  T
C1933      N1951   1.157       .  T
C1934      C1935   1.416       .  A
C1934      C1939   1.450       .  S
C1935      C1936   1.419       .  A
C1935      C1941   1.450       .  S
C1936      C1937   1.421       .  A
C1937      C1938   1.414       .  A
C1937      C1940   1.451       .  S
C1938      C1942   1.451       .  S
C1939      N1946   1.157   1_545  T
C1940      N1947   1.157       .  T
C1941      N1945   1.157       .  T
C1942      N1948   1.157       .  T
C1943      N1952   1.157       .  T
C1944      N1950   1.157       .  T
C1953      C1954   1.410       .  A
C1953      C1958   1.413       .  A
C1953      C1971   1.450       .  S
C1954      C1959   1.500       .  S
C1954      C1955   1.411       .  A
C1955      C1956   1.413       .  A
C1955      C1960   1.451       .  S
C1956      C1957   1.417       .  A
C1956      C1972   1.450       .  S
C1957      C1958   1.419       .  A
C1958      C1961   1.451       .  S
C1959      C1962   1.411       .  A
C1959      C1966   1.412   1_655  A
C1960      N1977   1.157   1_655  T
C1961      N1979   1.157       .  T
C1962      C1963   1.409   1_655  A
C1962      C1967   1.451       .  S
C1963      C1964   1.415       .  A
C1963      C1969   1.452   1_455  S
C1964      C1965   1.415       .  A
C1965      C1966   1.415       .  A
C1965      C1968   1.450       .  S
C1966      C1970   1.450       .  S
C1967      N1974   1.157       .  T
C1968      N1975   1.157       .  T
C1969      N1973   1.157       .  T
C1970      N1976   1.157       .  T
C1971      N1980   1.157       .  T
C1972      N1978   1.157       .  T
C1981      C1982   1.412       .  A
C1981      C1986   1.414       .  A
C1981      C1999   1.450       .  S
C1982      C1987   1.500       .  S
C1982      C1983   1.409       .  A
C1983      C1984   1.410       .  A
C1983      C1988   1.451       .  S
C1984      C1985   1.417       .  A
C1984      C2000   1.451       .  S
C1985      C1986   1.416       .  A
C1986      C1989   1.451       .  S
C1987      C1990   1.411       .  A
C1987      C1994   1.410   1_565  A
C1988      N2005   1.157       .  T
C1989      N2007   1.157       .  T
C1990      C1991   1.411   1_565  A
C1990      C1995   1.452       .  S
C1991      C1992   1.418       .  A
C1991      C1997   1.452       .  S
C1992      C1993   1.417       .  A
C1993      C1994   1.414       .  A
C1993      C1996   1.450       .  S
C1994      C1998   1.450       .  S
C1995      N2002   1.157       .  T
C1996      N2003   1.157       .  T
C1997      N2001   1.157   1_545  T
C1998      N2004   1.157       .  T
C1999      N2008   1.157   1_565  T
C2000      N2006   1.157       .  T
C2009      C2010   1.409       .  A
C2009      C2014   1.411       .  A
C2009      C2027   1.452       .  S
C2010      C2015   1.499       .  S
C2010      C2011   1.410       .  A
C2011      C2012   1.413       .  A
C2011      C2016   1.451       .  S
C2012      C2013   1.418       .  A
C2012      C2028   1.451       .  S
C2013      C2014   1.421       .  A
C2014      C2017   1.452       .  S
C2015      C2018   1.412       .  A
C2015      C2022   1.409       .  A
C2016      N2033   1.157       .  T
C2017      N2035   1.158       .  T
C2018      C2019   1.416       .  A
C2018      C2023   1.450       .  S
C2019      C2020   1.419       .  A
C2019      C2025   1.450       .  S
C2020      C2021   1.419       .  A
C2021      C2022   1.408       .  A
C2021      C2024   1.452       .  S
C2022      C2026   1.452       .  S
C2023      N2030   1.157       .  T
C2024      N2031   1.157       .  T
C2025      N2029   1.157       .  T
C2026      N2032   1.157       .  T
C2027      N2036   1.157       .  T
C2028      N2034   1.157       .  T
C2037      C2038   1.412       .  A
C2037      C2042   1.410       .  A
C2037      C2055   1.451       .  S
C2038      C2043   1.499       .  S
C2038      C2039   1.412       .  A
C2039      C2040   1.413       .  A
C2039      C2044   1.450       .  S
C2040      C2041   1.413       .  A
C2040      C2056   1.451       .  S
C2041      C2042   1.413       .  A
C2042      C2045   1.452       .  S
C2043      C2046   1.410       .  A
C2043      C2050   1.411       .  A
C2044      N2061   1.157       .  T
C2045      N2063   1.157       .  T
C2046      C2047   1.411       .  A
C2046      C2051   1.451       .  S
C2047      C2048   1.416       .  A
C2047      C2053   1.451       .  S
C2048      C2049   1.417       .  A
C2049      C2050   1.414       .  A
C2049      C2052   1.450       .  S
C2050      C2054   1.451       .  S
C2051      N2058   1.157       .  T
C2052      N2059   1.157       .  T
C2053      N2057   1.157       .  T
C2054      N2060   1.157       .  T
C2055      N2064   1.157       .  T
C2056      N2062   1.157       .  T
C2065      C2066   1.412       .  A
C2065      C2070   1.412       .  A
C2065      C2083   1.451       .  S
C2066      C2071   1.504       .  S
C2066      C2067   1.413       .  A
C2067      C2068   1.415       .  A
C2067      C2072   1.450       .  S
C2068      C2069   1.415       .  A
C2068      C2084   1.450       .  S
C2069      C2070   1.415       .  A
C2070      C2073   1.451       .  S
C2071      C2074   1.412       .  A
C2071      C2078   1.410       .  A
C2072      N2089   1.157       .  T
C2073      N2091   1.157       .  T
C2074      C2075   1.414       .  A
C2074      C2079   1.452       .  S
C2075      C2076   1.420       .  A
C2075      C2081   1.451       .  S
C2076      C2077   1.420       .  A
C2077      C2078   1.414       .  A
C2077      C2080   1.451       .  S
C2078      C2082   1.451       .  S
C2079      N2086   1.157       .  T
C2080      N2087   1.157       .  T
C2081      N2085   1.158       .  T
C2082      N2088   1.157       .  T
C2083      N2092   1.157       .  T
C2084      N2090   1.157       .  T
C2093      C2094   1.410       .  A
C2093      C2098   1.411       .  A
C2093      C2111   1.451       .  S
C2094      C2099   1.501       .  S
C2094      C2095   1.411       .  A
C2095      C2096   1.414       .  A
C2095      C2100   1.450       .  S
C2096      C2097   1.417       .  A
C2096      C2112   1.451       .  S
C2097      C2098   1.417       .  A
C2098      C2101   1.451       .  S
C2099      C2102   1.410       .  A
C2099      C2106   1.411       .  A
C2100      N2117   1.157       .  T
C2101      N2119   1.157       .  T
C2102      C2103   1.411       .  A
C2102      C2107   1.450       .  S
C2103      C2104   1.418       .  A
C2103      C2109   1.452       .  S
C2104      C2105   1.417       .  A
C2105      C2106   1.415       .  A
C2105      C2108   1.450       .  S
C2106      C2110   1.451       .  S
C2107      N2114   1.157       .  T
C2108      N2115   1.158       .  T
C2109      N2113   1.157       .  T
C2110      N2116   1.157       .  T
C2111      N2120   1.157       .  T
C2112      N2118   1.157       .  T
C2121      C2122   1.410       .  A
C2121      C2126   1.409       .  A
C2121      C2139   1.451       .  S
C2122      C2127   1.499       .  S
C2122      C2123   1.411       .  A
C2123      C2124   1.415       .  A
C2123      C2128   1.450       .  S
C2124      C2125   1.416       .  A
C2124      C2140   1.450       .  S
C2125      C2126   1.416       .  A
C2126      C2129   1.452       .  S
C2127      C2130   1.411       .  A
C2127      C2134   1.410       .  A
C2128      N2145   1.157       .  T
C2129      N2147   1.157       .  T
C2130      C2131   1.411       .  A
C2130      C2135   1.450       .  S
C2131      C2132   1.415       .  A
C2131      C2137   1.452       .  S
C2132      C2133   1.418       .  A
C2133      C2134   1.413       .  A
C2133      C2136   1.450       .  S
C2134      C2138   1.451       .  S
C2135      N2142   1.158       .  T
C2136      N2143   1.158       .  T
C2137      N2141   1.157       .  T
C2138      N2144   1.157       .  T
C2139      N2148   1.157       .  T
C2140      N2146   1.157       .  T
C2149      C2150   1.410       .  A
C2149      C2154   1.407       .  A
C2149      C2167   1.451       .  S
C2150      C2155   1.494       .  S
C2150      C2151   1.411       .  A
C2151      C2152   1.412       .  A
C2151      C2156   1.451       .  S
C2152      C2153   1.415       .  A
C2152      C2168   1.451       .  S
C2153      C2154   1.414       .  A
C2154      C2157   1.452       .  S
C2155      C2158   1.411       .  A
C2155      C2162   1.411       .  A
C2156      N2173   1.157       .  T
C2157      N2175   1.157       .  T
C2158      C2159   1.408       .  A
C2158      C2163   1.452       .  S
C2159      C2160   1.415       .  A
C2159      C2165   1.452       .  S
C2160      C2161   1.413       .  A
C2161      C2162   1.411       .  A
C2161      C2164   1.450       .  S
C2162      C2166   1.450       .  S
C2163      N2170   1.157       .  T
C2164      N2171   1.157       .  T
C2165      N2169   1.157       .  T
C2166      N2172   1.157       .  T
C2167      N2176   1.157       .  T
C2168      N2174   1.158       .  T
C2177      C2178   1.411       .  A
C2177      C2182   1.408       .  A
C2177      C2195   1.452   1_556  S
C2178      C2183   1.494       .  S
C2178      C2179   1.410       .  A
C2179      C2180   1.412       .  A
C2179      C2184   1.450       .  S
C2180      C2181   1.414       .  A
C2180      C2196   1.450       .  S
C2181      C2182   1.414       .  A
C2182      C2185   1.453       .  S
C2183      C2186   1.409   1_455  A
C2183      C2190   1.410   1_556  A
C2184      N2201   1.157       .  T
C2185      N2203   1.157   1_556  T
C2186      C2187   1.408   1_556  A
C2186      C2191   1.451       .  S
C2187      C2188   1.416       .  A
C2187      C2193   1.452       .  S
C2188      C2189   1.416       .  A
C2189      C2190   1.412   1_655  A
C2189      C2192   1.450       .  S
C2190      C2194   1.450   1_554  S
C2191      N2198   1.157       .  T
C2192      N2199   1.157       .  T
C2193      N2197   1.157       .  T
C2194      N2200   1.157       .  T
C2195      N2204   1.157       .  T
C2196      N2202   1.157       .  T
C2205      C2206   1.410       .  A
C2205      C2210   1.414       .  A
C2205      C2223   1.450       .  S
C2206      C2211   1.501   1_554  S
C2206      C2207   1.409       .  A
C2207      C2208   1.411       .  A
C2207      C2212   1.452   1_554  S
C2208      C2209   1.423       .  A
C2208      C2224   1.452       .  S
C2209      C2210   1.419       .  A
C2210      C2213   1.451       .  S
C2211      C2214   1.408       .  A
C2211      C2218   1.409       .  A
C2212      N2229   1.157       .  T
C2213      N2231   1.157       .  T
C2214      C2215   1.412       .  A
C2214      C2219   1.452       .  S
C2215      C2216   1.425       .  A
C2215      C2221   1.452       .  S
C2216      C2217   1.422       .  A
C2217      C2218   1.414       .  A
C2217      C2220   1.450       .  S
C2218      C2222   1.451       .  S
C2219      N2226   1.157   1_556  T
C2220      N2227   1.157       .  T
C2221      N2225   1.158       .  T
C2222      N2228   1.157   1_556  T
C2223      N2232   1.157       .  T
C2224      N2230   1.158   1_554  T
C2233      C2234   1.412       .  A
C2233      C2238   1.412       .  A
C2233      C2251   1.449   1_655  S
C2234      C2239   1.502   1_655  S
C2234      C2235   1.411       .  A
C2235      C2236   1.414       .  A
C2235      C2240   1.452       .  S
C2236      C2237   1.415       .  A
C2236      C2252   1.449       .  S
C2237      C2238   1.414       .  A
C2238      C2241   1.453       .  S
C2239      C2242   1.412       .  A
C2239      C2246   1.410       .  A
C2240      N2257   1.155       .  T
C2241      N2259   1.156   1_655  T
C2242      C2243   1.415       .  A
C2242      C2247   1.449   1_455  S
C2243      C2244   1.416       .  A
C2243      C2249   1.452       .  S
C2244      C2245   1.419       .  A
C2245      C2246   1.411       .  A
C2245      C2248   1.450       .  S
C2246      C2250   1.453       .  S
C2247      N2254   1.159       .  T
C2248      N2255   1.160       .  T
C2249      N2253   1.155       .  T
C2250      N2256   1.155       .  T
C2251      N2260   1.159       .  T
C2252      N2258   1.159       .  T
C2261      C2262   1.411       .  A
C2261      C2266   1.411       .  A
C2261      C2279   1.450       .  S
C2262      C2267   1.495       .  S
C2262      C2263   1.410       .  A
C2263      C2264   1.410       .  A
C2263      C2268   1.450       .  S
C2264      C2265   1.414       .  A
C2264      C2280   1.452       .  S
C2265      C2266   1.413       .  A
C2266      C2269   1.450       .  S
C2267      C2270   1.410       .  A
C2267      C2274   1.407       .  A
C2268      N2285   1.157       .  T
C2269      N2287   1.157       .  T
C2270      C2271   1.412       .  A
C2270      C2275   1.451       .  S
C2271      C2272   1.418       .  A
C2271      C2277   1.451       .  S
C2272      C2273   1.421       .  A
C2273      C2274   1.411       .  A
C2273      C2276   1.452       .  S
C2274      C2278   1.451       .  S
C2275      N2282   1.157       .  T
C2276      N2283   1.157       .  T
C2277      N2281   1.157       .  T
C2278      N2284   1.157       .  T
C2279      N2288   1.157       .  T
C2280      N2286   1.157       .  T
C2289      C2290   1.408       .  A
C2289      C2294   1.409       .  A
C2289      C2307   1.451       .  S
C2290      C2295   1.493       .  S
C2290      C2291   1.411       .  A
C2291      C2292   1.411       .  A
C2291      C2296   1.451       .  S
C2292      C2293   1.415       .  A
C2292      C2308   1.450       .  S
C2293      C2294   1.418       .  A
C2294      C2297   1.452       .  S
C2295      C2298   1.409       .  A
C2295      C2302   1.410       .  A
C2296      N2313   1.157       .  T
C2297      N2315   1.157       .  T
C2298      C2299   1.410       .  A
C2298      C2303   1.450       .  S
C2299      C2300   1.416       .  A
C2299      C2305   1.450       .  S
C2300      C2301   1.416       .  A
C2301      C2302   1.410       .  A
C2301      C2304   1.452       .  S
C2302      C2306   1.452       .  S
C2303      N2310   1.157       .  T
C2304      N2311   1.157       .  T
C2305      N2309   1.157       .  T
C2306      N2312   1.157       .  T
C2307      N2316   1.157       .  T
C2308      N2314   1.157       .  T
C2317      C2318   1.411       .  A
C2317      C2322   1.411       .  A
C2317      C2335   1.452       .  S
C2318      C2323   1.501       .  S
C2318      C2319   1.411       .  A
C2319      C2320   1.414       .  A
C2319      C2324   1.450       .  S
C2320      C2321   1.417       .  A
C2320      C2336   1.451       .  S
C2321      C2322   1.418       .  A
C2322      C2325   1.452       .  S
C2323      C2326   1.409       .  A
C2323      C2330   1.413       .  A
C2324      N2341   1.157       .  T
C2325      N2343   1.158       .  T
C2326      C2327   1.410       .  A
C2326      C2331   1.451       .  S
C2327      C2328   1.418       .  A
C2327      C2333   1.452       .  S
C2328      C2329   1.415       .  A
C2329      C2330   1.416       .  A
C2329      C2332   1.450       .  S
C2330      C2334   1.451       .  S
C2331      N2338   1.157       .  T
C2332      N2339   1.157       .  T
C2333      N2337   1.157       .  T
C2334      N2340   1.157       .  T
C2335      N2344   1.157       .  T
C2336      N2342   1.157       .  T
C2345      C2346   1.410       .  A
C2345      C2350   1.409       .  A
C2345      C2363   1.451       .  S
C2346      C2351   1.499       .  S
C2346      C2347   1.411       .  A
C2347      C2348   1.415       .  A
C2347      C2352   1.450       .  S
C2348      C2349   1.416       .  A
C2348      C2364   1.450       .  S
C2349      C2350   1.416       .  A
C2350      C2353   1.452       .  S
C2351      C2354   1.411       .  A
C2351      C2358   1.411       .  A
C2352      N2369   1.157       .  T
C2353      N2371   1.157       .  T
C2354      C2355   1.412       .  A
C2354      C2359   1.450       .  S
C2355      C2356   1.415       .  A
C2355      C2361   1.451       .  S
C2356      C2357   1.415       .  A
C2357      C2358   1.411       .  A
C2357      C2360   1.451       .  S
C2358      C2362   1.451       .  S
C2359      N2366   1.157       .  T
C2360      N2367   1.157       .  T
C2361      N2365   1.157   1_554  T
C2362      N2368   1.157       .  T
C2363      N2372   1.157       .  T
C2364      N2370   1.157       .  T
C2373      C2374   1.410       .  A
C2373      C2378   1.413       .  A
C2373      C2391   1.452       .  S
C2374      C2379   1.495       .  S
C2374      C2375   1.409       .  A
C2375      C2376   1.409       .  A
C2375      C2380   1.449       .  S
C2376      C2377   1.417       .  A
C2376      C2392   1.454       .  S
C2377      C2378   1.417       .  A
C2378      C2381   1.448       .  S
C2379      C2382   1.410       .  A
C2379      C2386   1.411       .  A
C2380      N2397   1.159       .  T
C2381      N2399   1.160       .  T
C2382      C2383   1.412       .  A
C2382      C2387   1.449       .  S
C2383      C2384   1.415       .  A
C2383      C2389   1.451       .  S
C2384      C2385   1.416       .  A
C2385      C2386   1.410       .  A
C2385      C2388   1.451       .  S
C2386      C2390   1.452       .  S
C2387      N2394   1.158       .  T
C2388      N2395   1.158       .  T
C2389      N2393   1.157       .  T
C2390      N2396   1.157       .  T
C2391      N2400   1.155       .  T
C2392      N2398   1.155       .  T
C2401      C2402   1.413       .  A
C2401      C2406   1.414       .  A
C2401      C2419   1.449       .  S
C2402      C2407   1.502       .  S
C2402      C2403   1.410       .  A
C2403      C2404   1.411       .  A
C2403      C2408   1.454       .  S
C2404      C2405   1.421       .  A
C2404      C2420   1.450       .  S
C2405      C2406   1.417       .  A
C2406      C2409   1.453       .  S
C2407      C2410   1.411       .  A
C2407      C2414   1.412       .  A
C2408      N2425   1.155       .  T
C2409      N2427   1.155       .  T
C2410      C2411   1.412       .  A
C2410      C2415   1.451       .  S
C2411      C2412   1.419       .  A
C2411      C2417   1.453       .  S
C2412      C2413   1.417       .  A
C2413      C2414   1.413       .  A
C2413      C2416   1.450       .  S
C2414      C2418   1.451       .  S
C2415      N2422   1.158       .  T
C2416      N2423   1.158       .  T
C2417      N2421   1.157       .  T
C2418      N2424   1.157       .  T
C2419      N2428   1.159       .  T
C2420      N2426   1.160       .  T
C2429      C2430   1.413       .  A
C2429      C2434   1.413       .  A
C2429      C2447   1.451       .  S
C2430      C2435   1.505       .  S
C2430      C2431   1.414       .  A
C2431      C2432   1.413       .  A
C2431      C2436   1.450       .  S
C2432      C2433   1.413       .  A
C2432      C2448   1.451       .  S
C2433      C2434   1.416       .  A
C2434      C2437   1.452   1_556  S
C2435      C2438   1.413       .  A
C2435      C2442   1.413       .  A
C2436      N2453   1.157       .  T
C2437      N2455   1.158       .  T
C2438      C2439   1.415       .  A
C2438      C2443   1.450       .  S
C2439      C2440   1.416       .  A
C2439      C2445   1.451       .  S
C2440      C2441   1.416       .  A
C2441      C2442   1.412       .  A
C2441      C2444   1.452       .  S
C2442      C2446   1.451       .  S
C2443      N2450   1.157       .  T
C2444      N2451   1.157       .  T
C2445      N2449   1.157       .  T
C2446      N2452   1.157       .  T
C2447      N2456   1.157       .  T
C2448      N2454   1.157       .  T
C2457      C2458   1.410   1_554  A
C2457      C2462   1.412       .  A
C2457      C2475   1.451       .  S
C2458      C2463   1.501   1_556  S
C2458      C2459   1.411       .  A
C2459      C2460   1.413       .  A
C2459      C2464   1.451       .  S
C2460      C2461   1.418       .  A
C2460      C2476   1.451       .  S
C2461      C2462   1.419   1_556  A
C2462      C2465   1.451       .  S
C2463      C2466   1.411       .  A
C2463      C2470   1.412       .  A
C2464      N2481   1.157       .  T
C2465      N2483   1.157       .  T
C2466      C2467   1.412       .  A
C2466      C2471   1.451       .  S
C2467      C2468   1.416       .  A
C2467      C2473   1.451       .  S
C2468      C2469   1.414       .  A
C2469      C2470   1.414       .  A
C2469      C2472   1.450       .  S
C2470      C2474   1.450   1_554  S
C2471      N2478   1.157       .  T
C2472      N2479   1.157   1_554  T
C2473      N2477   1.157       .  T
C2474      N2480   1.157       .  T
C2475      N2484   1.157       .  T
C2476      N2482   1.157       .  T
