geometry optimzed in LAMMPS
_audit_creation_date              2020-12-01 
_audit_creation_method            'lammps2cif' 
_symmetry_space_group_name_H-M    'P1' 
_symmetry_Int_Tables_number       1 
_symmetry_cell_setting            triclinic 
loop_ 
_symmetry_equiv_pos_as_xyz 
  x,y,z 
_cell_length_a                    86.55374722 
_cell_length_b                    86.58899076142669 
_cell_length_c                    86.49899426812188 
_cell_angle_alpha                 89.98115291836629 
_cell_angle_beta                  90.01015590434668 
_cell_angle_gamma                 90.00565284804827 
loop_ 
_atom_site_label 
_atom_site_type_symbol 
_atom_site_fract_x 
_atom_site_fract_y 
_atom_site_fract_z 
_atom_site_charge 
N1          N  0.78084108  0.50029981  0.74773943    -0.35000
N2          N  0.76342490  0.47649037  0.76371306    -0.55600
N3          N  0.74693732  0.50027298  0.78106543    -0.35000
N4          N  0.76332126  0.52408620  0.76398174    -0.55600
C5          C  0.78513799  0.48772951  0.73950021     0.28500
C6          C  0.78492236  0.51291416  0.73946549     0.28500
C7          C  0.73856209  0.48766379  0.78494898     0.28500
C8          C  0.73867264  0.51285052  0.78529374     0.28500
C9          C  0.77385600  0.46739060  0.75649323     0.37200
C10         C  0.75578738  0.46735969  0.77381036     0.37200
C11         C  0.77354645  0.53322700  0.75651967     0.37200
C12         C  0.75578882  0.53320964  0.77417688     0.37200
C13         C  0.79224405  0.49241699  0.72590925    -0.20300
C14         C  0.79210108  0.50830175  0.72588297    -0.20300
C15         C  0.72492225  0.49228575  0.79200205    -0.20300
C16         C  0.72500324  0.50816577  0.79223801    -0.20300
C17         C  0.77274401  0.45236376  0.76192595    -0.21400
C18         C  0.76127987  0.45233876  0.77288463    -0.21400
C19         C  0.77238219  0.54827757  0.76188122    -0.21400
C20         C  0.76113663  0.54826519  0.77306564    -0.21400
C21         C  0.78351421  0.47218976  0.74425609    -0.16700
C22         C  0.78314561  0.52843898  0.74421687    -0.16700
C23         C  0.74338015  0.52840477  0.78362490    -0.16700
C24         C  0.74321650  0.47212223  0.78304612    -0.16700
H25         H  0.79711035  0.48515343  0.71696679     0.16200
H26         H  0.79685495  0.51562022  0.71692066     0.16200
H27         H  0.71586731  0.48497863  0.79658722     0.16200
H28         H  0.71601078  0.51542787  0.79700541     0.16200
H29         H  0.77932380  0.44240618  0.75820372     0.14500
H30         H  0.75731021  0.44235905  0.77929308     0.14500
H31         H  0.77880504  0.55827559  0.75798985     0.14500
H32         H  0.75718752  0.55824855  0.77947269     0.14500
H33         H  0.77696718  0.50029473  0.75909438     0.27700
H34         H  0.75830604  0.50025997  0.77726104     0.27700
N35         N  0.48833695  0.78751331  0.74166254    -0.35000
N36         N  0.51189792  0.77109936  0.75931621    -0.55600
N37         N  0.48777801  0.75345244  0.77490110    -0.35000
N38         N  0.46420781  0.77116316  0.75856606    -0.55600
C39         C  0.50100239  0.79565402  0.73743623     0.28500
C40         C  0.47580589  0.79558996  0.73694785     0.28500
C41         C  0.50026788  0.74885517  0.78311492     0.28500
C42         C  0.47507451  0.74912132  0.78293535     0.28500
C43         C  0.52126679  0.77904020  0.74966619     0.37200
C44         C  0.52096952  0.76097409  0.76700328     0.37200
C45         C  0.45517341  0.77893085  0.74846620     0.37200
C46         C  0.45488123  0.76119183  0.76614170     0.37200
C47         C  0.49645976  0.80891027  0.72964867    -0.20300
C48         C  0.48058284  0.80887155  0.72934160    -0.20300
C49         C  0.49543984  0.74120740  0.79635851    -0.20300
C50         C  0.47956277  0.74139124  0.79625621    -0.20300
C51         C  0.53641395  0.77411279  0.75143175    -0.21400
C52         C  0.53622265  0.76266728  0.76239397    -0.21400
C53         C  0.43998370  0.77398921  0.74976403    -0.21400
C54         C  0.43979749  0.76276486  0.76096123    -0.21400
C55         C  0.51654283  0.79119852  0.73984686    -0.16700
C56         C  0.46020587  0.79106670  0.73877248    -0.16700
C57         C  0.45955448  0.75139099  0.77832951    -0.16700
C58         C  0.51588714  0.75085493  0.77876191    -0.16700
H59         H  0.50381581  0.81771619  0.72467341     0.16200
H60         H  0.47338480  0.81764626  0.72408640     0.16200
H61         H  0.50260811  0.73604572  0.80521934     0.16200
H62         H  0.47217180  0.73637071  0.80501240     0.16200
H63         H  0.54657503  0.77838519  0.74552048     0.14500
H64         H  0.54620821  0.75642050  0.76659785     0.14500
H65         H  0.43003078  0.77816259  0.74343976     0.14500
H66         H  0.42967570  0.75659513  0.76494933     0.14500
H67         H  0.48827395  0.77642007  0.74605515     0.27700
H68         H  0.48792012  0.75782083  0.76377958     0.27700
N69         N  0.78145364  0.75789544  0.49126756    -0.35000
N70         N  0.76423399  0.77426779  0.51505690    -0.55600
N71         N  0.74727709  0.79092158  0.49125990    -0.35000
N72         N  0.76356672  0.77364991  0.46749893    -0.55600
C73         C  0.78558503  0.74965155  0.50391375     0.28500
C74         C  0.78539878  0.74946405  0.47869631     0.28500
C75         C  0.73907714  0.79497889  0.50393862     0.28500
C76         C  0.73860563  0.79452359  0.47874647     0.28500
C77         C  0.77452753  0.76690007  0.52419157     0.37200
C78         C  0.75675693  0.78449682  0.52416218     0.37200
C79         C  0.77375990  0.76621957  0.45830741     0.37200
C80         C  0.75568504  0.78351550  0.45831351     0.37200
C81         C  0.79252452  0.73596154  0.49930930    -0.20300
C82         C  0.79241823  0.73585007  0.48341013    -0.20300
C83         C  0.72513060  0.80147006  0.49942325    -0.20300
C84         C  0.72483197  0.80117905  0.48353072    -0.20300
C85         C  0.77352463  0.77240815  0.53921282    -0.21400
C86         C  0.76227622  0.78357564  0.53919056    -0.21400
C87         C  0.77228430  0.77132614  0.44317833    -0.21400
C88         C  0.76082860  0.78228083  0.44318176    -0.21400
C89         C  0.78385771  0.75440419  0.51946264    -0.16700
C90         C  0.78339223  0.75396813  0.46310381    -0.16700
C91         C  0.74309669  0.79267765  0.46314543    -0.16700
C92         C  0.74412748  0.79364679  0.51942092    -0.16700
H93         H  0.79720891  0.72697358  0.50663920     0.16200
H94         H  0.79698977  0.72675461  0.47615077     0.16200
H95         H  0.71611172  0.80600264  0.50680727     0.16200
H96         H  0.71554607  0.80545647  0.47632186     0.16200
H97         H  0.78001183  0.76858078  0.54920480     0.14500
H98         H  0.75837487  0.79002916  0.54916930     0.14500
H99         H  0.77857941  0.76735029  0.43312743     0.14500
H100        H  0.75657085  0.78840930  0.43313849     0.14500
H101        H  0.77762563  0.76924234  0.49119199     0.27700
H102        H  0.75875086  0.78748664  0.49112706     0.27700
N103        N  0.35976266  0.87167614  0.31453419    -0.25700
N104        N  0.35492362  0.85852090  0.32060622    -0.33600
C105        C  0.36347442  0.84685974  0.31493725     0.02600
C106        C  0.37413581  0.85305266  0.30484933     0.08600
C107        C  0.37153268  0.86876195  0.30481858    -0.04500
H108        H  0.36206231  0.83482490  0.31800013     0.09300
H109        H  0.37774811  0.87743922  0.29830886     0.10500
Cu110      Cu  0.33713786  0.85715859  0.33649203     0.44200
Cu111      Cu  0.35028054  0.89292824  0.32000507     0.42000
Cu112      Cu  0.31936702  0.89317044  0.34848036     0.43900
N113        N  0.31973449  0.85862257  0.35278907    -0.33100
N114        N  0.31322651  0.87171456  0.35723525    -0.27400
C115        C  0.30280132  0.86864055  0.36836224    -0.03500
C116        C  0.30282808  0.85290827  0.37092599     0.08700
C117        C  0.31365114  0.84688605  0.36093603     0.02500
H118        H  0.29597544  0.87724408  0.37432855     0.10200
H119        H  0.31710494  0.83492414  0.35987172     0.09300
N120        N  0.32820972  0.91291016  0.33814207    -0.34600
N121        N  0.33942255  0.91278279  0.32774216    -0.26700
C122        C  0.34251639  0.92737823  0.32341423    -0.02000
C123        C  0.33278585  0.93706260  0.33147928     0.06600
C124        C  0.32388031  0.92760933  0.34071903     0.04700
H125        H  0.35124849  0.93066104  0.31508726     0.09800
H126        H  0.31496262  0.93112008  0.34874675     0.08700
N127        N  0.35892365  0.12903797  0.31244816    -0.25700
N128        N  0.35420581  0.14221182  0.31858303    -0.33600
C129        C  0.36242359  0.15388973  0.31246572     0.02600
C130        C  0.37272126  0.14770174  0.30201637     0.08600
C131        C  0.37027950  0.13197074  0.30225303    -0.04500
H132        H  0.36105429  0.16593630  0.31549226     0.09300
H133        H  0.37631524  0.12329042  0.29558688     0.10500
Cu134      Cu  0.33707448  0.14370917  0.33518284     0.44200
Cu135      Cu  0.34976135  0.10769293  0.31818518     0.42000
Cu136      Cu  0.31908568  0.10757125  0.34651298     0.43900
N137        N  0.32048134  0.14189602  0.35229944    -0.33100
N138        N  0.31392533  0.12873637  0.35648123    -0.27400
C139        C  0.30397237  0.13150684  0.36810290    -0.03500
C140        C  0.30434787  0.14711336  0.37128238     0.08700
C141        C  0.31488148  0.15338563  0.36111993     0.02500
H142        H  0.29707305  0.12279777  0.37383341     0.10200
H143        H  0.31831830  0.16536940  0.36024783     0.09300
N144        N  0.32722269  0.08779949  0.33571542    -0.34600
N145        N  0.33856540  0.08783314  0.32546624    -0.26700
C146        C  0.34154032  0.07321033  0.32113835    -0.02000
C147        C  0.33156502  0.06361269  0.32903559     0.06600
C148        C  0.32265779  0.07315118  0.33817835     0.04700
H149        H  0.35046109  0.06983444  0.31305512     0.09800
H150        H  0.31375985  0.06970893  0.34626062     0.08700
N151        N  0.49090484  0.24358029  0.19966226    -0.35000
N152        N  0.51495069  0.22758355  0.21702660    -0.55600
N153        N  0.49143326  0.20982270  0.23315942    -0.35000
N154        N  0.46739070  0.22692754  0.21690830    -0.55600
C155        C  0.50338864  0.25200430  0.19552411     0.28500
C156        C  0.47823072  0.25178195  0.19561969     0.28500
C157        C  0.50405454  0.20567361  0.24140414     0.28500
C158        C  0.47887295  0.20518547  0.24121945     0.28500
C159        C  0.52397915  0.23527465  0.20688343     0.37200
C160        C  0.52427978  0.21766577  0.22465964     0.37200
C161        C  0.45810297  0.23453112  0.20692954     0.37200
C162        C  0.45837662  0.21661000  0.22436679     0.37200
C163        C  0.49859228  0.26556789  0.18844240    -0.20300
C164        C  0.48272204  0.26543124  0.18851180    -0.20300
C165        C  0.49945361  0.19798866  0.25471228    -0.20300
C166        C  0.48357441  0.19767402  0.25459091    -0.20300
C167        C  0.53916378  0.23031515  0.20816586    -0.21400
C168        C  0.53935690  0.21916966  0.21944337    -0.21400
C169        C  0.44307331  0.22912754  0.20815034    -0.21400
C170        C  0.44324597  0.21776205  0.21919102    -0.21400
C171        C  0.51897123  0.24754101  0.19738312    -0.16700
C172        C  0.46274469  0.24702780  0.19756902    -0.16700
C173        C  0.46331925  0.20698814  0.23657029    -0.16700
C174        C  0.51959623  0.20802228  0.23695539    -0.16700
H175        H  0.50577406  0.27464339  0.18370290     0.16200
H176        H  0.47533942  0.27437364  0.18382795     0.16200
H177        H  0.50676946  0.19306899  0.26359026     0.16200
H178        H  0.47632389  0.19247885  0.26336247     0.16200
H179        H  0.54911279  0.23447826  0.20182961     0.14500
H180        H  0.54947577  0.21302441  0.22347678     0.14500
H181        H  0.43299279  0.23310899  0.20190410     0.14500
H182        H  0.43331154  0.21126446  0.22312725     0.14500
H183        H  0.49105014  0.23225089  0.20350962     0.27700
H184        H  0.49140489  0.21411251  0.22199020     0.27700
N185        N  0.62358337  0.87192300  0.31338971    -0.25700
N186        N  0.62739225  0.85879133  0.32022407    -0.33600
C187        C  0.61852364  0.84736905  0.31454032     0.02600
C188        C  0.60873064  0.85367400  0.30366324     0.08600
C189        C  0.61217995  0.86921442  0.30317531    -0.04500
H190        H  0.61903986  0.83543594  0.31822100     0.09300
H191        H  0.60669471  0.87794666  0.29610513     0.10500
Cu192      Cu  0.64402754  0.85705196  0.33736002     0.44200
Cu193      Cu  0.63359681  0.89301592  0.31865175     0.42000
Cu194      Cu  0.66150744  0.89305695  0.34972572     0.43900
N195        N  0.66056030  0.85857326  0.35462020    -0.33100
N196        N  0.66686511  0.87172486  0.35918827    -0.27400
C197        C  0.67696508  0.86880488  0.37064167    -0.03500
C198        C  0.67697066  0.85310735  0.37332819     0.08700
C199        C  0.66648266  0.84692677  0.36304246     0.02500
H200        H  0.68372169  0.87747813  0.37658929     0.10200
H201        H  0.66329590  0.83490478  0.36182416     0.09300
N202        N  0.65461719  0.91281983  0.33809371    -0.34600
N203        N  0.64450752  0.91276863  0.32662202    -0.26700
C204        C  0.64224412  0.92735519  0.32177790    -0.02000
C205        C  0.65137112  0.93694998  0.33063275     0.06600
C206        C  0.65905487  0.92745066  0.34087364     0.04700
H207        H  0.63427835  0.93072544  0.31274469     0.09800
H208        H  0.66703199  0.93090627  0.34986360     0.08700
N209        N  0.62318790  0.12878628  0.31295788    -0.25700
N210        N  0.62775029  0.14188150  0.31937080    -0.33600
C211        C  0.61954144  0.15361600  0.31337231     0.02600
C212        C  0.60938640  0.14756717  0.30271160     0.08600
C213        C  0.61191813  0.13183745  0.30268777    -0.04500
H214        H  0.62075646  0.16560145  0.31669338     0.09300
H215        H  0.60592081  0.12323297  0.29588594     0.10500
Cu216      Cu  0.64455686  0.14327174  0.33627390     0.44200
Cu217      Cu  0.63226014  0.10741811  0.31879023     0.42000
Cu218      Cu  0.66184412  0.10741802  0.34863651     0.43900
N219        N  0.66135813  0.14186075  0.35318392    -0.33100
N220        N  0.66775761  0.12874381  0.35770010    -0.27400
C221        C  0.67798512  0.13172231  0.36902210    -0.03500
C222        C  0.67793086  0.14742762  0.37166613     0.08700
C223        C  0.66730555  0.15354411  0.36150430     0.02500
H224        H  0.68473777  0.12307551  0.37501661     0.10200
H225        H  0.66397262  0.16553440  0.36036428     0.09300
N226        N  0.65371927  0.08764791  0.33789374    -0.34600
N227        N  0.64299766  0.08765544  0.32698449    -0.26700
C228        C  0.64026004  0.07302121  0.32255919    -0.02000
C229        C  0.64970688  0.06345549  0.33110128     0.06600
C230        C  0.65807745  0.07300650  0.34071724     0.04700
H231        H  0.63190915  0.06962437  0.31389352     0.09800
H232        H  0.66660215  0.06960012  0.34921080     0.08700
N233        N  0.74546301  0.21110065  0.48997761    -0.35000
N234        N  0.76156380  0.22941515  0.46672152    -0.55600
N235        N  0.77622547  0.24736375  0.49139592    -0.35000
N236        N  0.76021916  0.22898881  0.51464461    -0.55600
C237        C  0.73814375  0.20601488  0.47710494     0.28500
C238        C  0.73747637  0.20573833  0.50231816     0.28500
C239        C  0.78395725  0.25306554  0.47904637     0.28500
C240        C  0.78329626  0.25277810  0.50427595     0.28500
C241        C  0.75349823  0.22021012  0.45703808     0.37200
C242        C  0.77025362  0.23879433  0.45778198     0.37200
C243        C  0.75173820  0.21941413  0.52357184     0.37200
C244        C  0.76849944  0.23798402  0.52434670     0.28800
C245        C  0.72562586  0.19693553  0.48135330    -0.20300
C246        C  0.72520630  0.19676235  0.49721265    -0.20300
C247        C  0.79581755  0.26257323  0.48415736    -0.20300
C248        C  0.79540259  0.26238986  0.50002078    -0.20300
C249        C  0.75714191  0.22371252  0.44182062    -0.21400
C250        C  0.76772144  0.23548744  0.44228850    -0.21400
C251        C  0.75466284  0.22233450  0.53907161    -0.21400
C252        C  0.76524794  0.23409684  0.53955964    -0.21400
C253        C  0.74229403  0.20925463  0.46160179    -0.16700
C254        C  0.74086062  0.20855417  0.51808416    -0.16700
C255        C  0.77934442  0.24930540  0.51979060    -0.16700
C256        C  0.78077519  0.25001650  0.46327111    -0.16700
H257        H  0.71747890  0.19116734  0.47381559     0.16200
H258        H  0.71668379  0.19082680  0.50418334     0.16200
H259        H  0.80409064  0.26885323  0.47718899     0.16200
H260        H  0.80329942  0.26849392  0.50755725     0.16200
H261        H  0.75252877  0.21846868  0.43144087     0.14500
H262        H  0.77297875  0.24094478  0.43233319     0.14500
H263        H  0.74960554  0.21668072  0.54902098     0.14500
H264        H  0.77006244  0.23913303  0.54994915     0.14500
H265        H  0.75595470  0.21685426  0.49035424     0.27700
H266        H  0.76606589  0.24105666  0.49101571     0.27700
N267        N  0.62159564  0.87147297  0.66670552    -0.25700
N268        N  0.62622603  0.85838401  0.66032144    -0.33600
C269        C  0.61804251  0.84661909  0.66633089     0.02600
C270        C  0.60784483  0.85264505  0.67697926     0.08600
C271        C  0.61032536  0.86838291  0.67695982    -0.04500
H272        H  0.61934022  0.83462621  0.66306776     0.09300
H273        H  0.60432134  0.87697009  0.68377270     0.10500
Cu274      Cu  0.64322591  0.85708467  0.64356299     0.44200
Cu275      Cu  0.63067208  0.89294896  0.66108762     0.42000
Cu276      Cu  0.66089187  0.89325872  0.63218479     0.43900
N277        N  0.66023751  0.85887740  0.62686451    -0.33100
N278        N  0.66669592  0.87208655  0.62269911    -0.27400
C279        C  0.67711737  0.86933459  0.61150476    -0.03500
C280        C  0.67715581  0.85368456  0.60858212     0.08700
C281        C  0.66636863  0.84735794  0.61844351     0.02500
H282        H  0.68403610  0.87808952  0.60586808     0.10200
H283        H  0.66311681  0.83532686  0.61937243     0.09300
N284        N  0.65278872  0.91295722  0.64306620    -0.34600
N285        N  0.64169918  0.91288746  0.65359157    -0.26700
C286        C  0.63884212  0.92751214  0.65801648    -0.02000
C287        C  0.64861881  0.93712923  0.64987948     0.06600
C288        C  0.65729199  0.92760470  0.64051122     0.04700
H289        H  0.63013785  0.93087853  0.66633534     0.09800
H290        H  0.66602473  0.93105108  0.63225130     0.08700
N291        N  0.66501098  0.12922648  0.62173401    -0.25700
N292        N  0.65838926  0.14230445  0.62604575    -0.33600
C293        C  0.66372297  0.15385259  0.61711187     0.02600
C294        C  0.67413932  0.14765687  0.60677025     0.08600
C295        C  0.67472861  0.13207953  0.60995502    -0.04500
H296        H  0.66022455  0.16581162  0.61805757     0.09300
H297        H  0.68163080  0.12343772  0.60413305     0.10500
Cu298      Cu  0.64217259  0.14378448  0.64360812     0.44200
Cu299      Cu  0.66033661  0.10802203  0.63168802     0.42000
Cu300      Cu  0.63117301  0.10754774  0.66155245     0.43900
N301        N  0.62554930  0.14194480  0.66076400    -0.33100
N302        N  0.62149284  0.12871490  0.66726256    -0.27400
C303        C  0.61014315  0.13138361  0.67754683    -0.03500
C304        C  0.60698568  0.14699739  0.67747587     0.08700
C305        C  0.61689605  0.15338657  0.66674601     0.02500
H306        H  0.60449374  0.12257788  0.68439120     0.10200
H307        H  0.61762061  0.16539319  0.66335068     0.09300
N308        N  0.64220826  0.08787048  0.65346525    -0.34600
N309        N  0.65291719  0.08807746  0.64255815    -0.26700
C310        C  0.65743678  0.07351671  0.63958363    -0.02000
C311        C  0.64917093  0.06376471  0.64909190     0.06600
C312        C  0.63962164  0.07315305  0.65773524     0.04700
H313        H  0.66589029  0.07028914  0.63095528     0.09800
H314        H  0.63123571  0.06956780  0.66628930     0.08700
N315        N  0.35554880  0.87264940  0.66581603    -0.25700
N316        N  0.35157514  0.85948071  0.65917856    -0.33600
C317        C  0.36061594  0.84810241  0.66468792     0.02600
C318        C  0.37068441  0.85449870  0.67526534     0.08600
C319        C  0.36721388  0.87003033  0.67574723    -0.04500
H320        H  0.35998149  0.83613529  0.66114481     0.09300
H321        H  0.37283489  0.87881060  0.68264350     0.10500
Cu322      Cu  0.33432902  0.85784396  0.64268499     0.44200
Cu323      Cu  0.34528619  0.89360893  0.66062859     0.42000
Cu324      Cu  0.31497725  0.89374127  0.63187790     0.43900
N325        N  0.31721620  0.85944276  0.62604762    -0.33100
N326        N  0.31016479  0.87243328  0.62213407    -0.27400
C327        C  0.30016590  0.86950179  0.61059968    -0.03500
C328        C  0.30103985  0.85398117  0.60718272     0.08700
C329        C  0.31189649  0.84790870  0.61711686     0.02500
H330        H  0.29306167  0.87809189  0.60493932     0.10200
H331        H  0.31587905  0.83607469  0.61763147     0.09300
N332        N  0.32300187  0.91349898  0.64271550    -0.34600
N333        N  0.33411653  0.91340665  0.65321387    -0.26700
C334        C  0.33695396  0.92798432  0.65774348    -0.02000
C335        C  0.32714112  0.93761771  0.64971493     0.06600
C336        C  0.31845668  0.92815747  0.64027461     0.04700
H337        H  0.34562208  0.93129864  0.66612469     0.09800
H338        H  0.30963560  0.93164407  0.63212359     0.08700
N339        N  0.31344236  0.12865203  0.62114174    -0.25700
N340        N  0.32036210  0.14174772  0.62488021    -0.33600
C341        C  0.31492016  0.15312242  0.61579749     0.02600
C342        C  0.30410285  0.14679485  0.60595797     0.08600
C343        C  0.30340777  0.13131528  0.60958476    -0.04500
H344        H  0.31857417  0.16506096  0.61634127     0.09300
H345        H  0.29619330  0.12262059  0.60423690     0.10500
Cu346      Cu  0.33686287  0.14348570  0.64208826     0.44200
Cu347      Cu  0.31806638  0.10774527  0.63170756     0.42000
Cu348      Cu  0.34788920  0.10771449  0.66099526     0.43900
N349        N  0.35317944  0.14211396  0.65949621    -0.33100
N350        N  0.35726526  0.12908061  0.66636137    -0.27400
C351        C  0.36821597  0.13215336  0.67695571    -0.03500
C352        C  0.37105173  0.14782004  0.67667636     0.08700
C353        C  0.36140134  0.15382725  0.66552784     0.02500
H354        H  0.37373691  0.12360564  0.68422176     0.10200
H355        H  0.36048462  0.16577056  0.66195933     0.09300
N356        N  0.33639534  0.08800793  0.65372087    -0.34600
N357        N  0.32538510  0.08808236  0.64311243    -0.26700
C358        C  0.32038477  0.07355619  0.64085929    -0.02000
C359        C  0.32865159  0.06397191  0.65052335     0.06600
C360        C  0.33871414  0.07340631  0.65850433     0.04700
H361        H  0.31157140  0.07023174  0.63263393     0.09800
H362        H  0.34719584  0.06993422  0.66701305     0.08700
N363        N  0.48828279  0.21013897  0.74662336    -0.35000
N364        N  0.51239717  0.22762543  0.76210695    -0.55600
N365        N  0.48885289  0.24405546  0.77990793    -0.35000
N366        N  0.46471556  0.22776621  0.76325163    -0.55600
C367        C  0.50070016  0.20546739  0.73833896     0.28500
C368        C  0.47550125  0.20563904  0.73883887     0.28500
C369        C  0.50153940  0.25231148  0.78377241     0.28500
C370        C  0.47637011  0.25230308  0.78443755     0.28500
C371        C  0.52146290  0.21753729  0.75436684     0.37200
C372        C  0.52174785  0.23543260  0.77187148     0.37200
C373        C  0.45536939  0.21781160  0.75570540     0.37200
C374        C  0.45568598  0.23559047  0.77330324     0.37200
C375        C  0.49573787  0.19762839  0.72526254    -0.20300
C376        C  0.47985803  0.19773911  0.72557261    -0.20300
C377        C  0.49706341  0.26586604  0.79107212    -0.20300
C378        C  0.48119433  0.26585481  0.79149841    -0.20300
C379        C  0.53670015  0.21911920  0.75906952    -0.21400
C380        C  0.53687888  0.23044183  0.77016054    -0.21400
C381        C  0.44026782  0.21949694  0.76082255    -0.21400
C382        C  0.44047325  0.23074918  0.77197630    -0.21400
C383        C  0.51636851  0.20752228  0.74252267    -0.16700
C384        C  0.46003087  0.20787981  0.74362910    -0.16700
C385        C  0.46077851  0.24769112  0.78297080    -0.16700
C386        C  0.51704385  0.24766793  0.78158468    -0.16700
H387        H  0.50281616  0.19234315  0.71640889     0.16200
H388        H  0.47237711  0.19254474  0.71699737     0.16200
H389        H  0.50446265  0.27483374  0.79567537     0.16200
H390        H  0.47402941  0.27481469  0.79646983     0.16200
H391        H  0.54667856  0.21287246  0.75485528     0.14500
H392        H  0.54702674  0.23464036  0.77614743     0.14500
H393        H  0.43012014  0.21337271  0.75683075     0.14500
H394        H  0.43052525  0.23500569  0.77824716     0.14500
H395        H  0.48849662  0.21468931  0.75769227     0.27700
H396        H  0.48878528  0.23273824  0.77600067     0.27700
N397        N  0.23435984  0.21015578  0.48841006    -0.35000
N398        N  0.21737086  0.22704609  0.46486563    -0.55600
N399        N  0.20003784  0.24293996  0.48889371    -0.35000
N400        N  0.21798194  0.22703636  0.51246459    -0.55600
C401        C  0.24279549  0.20657018  0.47573986     0.28500
C402        C  0.24284623  0.20621572  0.50093331     0.28500
C403        C  0.19554156  0.25108084  0.47631840     0.28500
C404        C  0.19602392  0.25124098  0.50152302     0.28500
C405        C  0.22504541  0.21708324  0.45563068     0.37200
C406        C  0.20675624  0.23412898  0.45588117     0.37200
C407        C  0.22564199  0.21683984  0.52147225     0.37200
C408        C  0.20783016  0.23441375  0.52175434     0.37200
C409        C  0.25673577  0.20007666  0.48027383    -0.20300
C410        C  0.25675460  0.19982588  0.49617194    -0.20300
C411        C  0.18833687  0.26460108  0.48101815    -0.20300
C412        C  0.18864691  0.26470576  0.49691299    -0.20300
C413        C  0.21935367  0.21790781  0.44066663    -0.21400
C414        C  0.20775453  0.22870890  0.44082596    -0.21400
C415        C  0.22045032  0.21786249  0.53660769    -0.21400
C416        C  0.20918409  0.22901835  0.53678985    -0.21400
C417        C  0.23791115  0.20820885  0.46023364    -0.16700
C418        C  0.23806533  0.20752283  0.51649403    -0.16700
C419        C  0.19810716  0.24664613  0.51707397    -0.16700
C420        C  0.19711305  0.24632143  0.46076368    -0.16700
H421        H  0.26590253  0.19583762  0.47289696     0.16200
H422        H  0.26595085  0.19538856  0.50339936     0.16200
H423        H  0.18331317  0.27345933  0.47375563     0.16200
H424        H  0.18389991  0.27365831  0.50423842     0.16200
H425        H  0.22332743  0.21159650  0.43062553     0.14500
H426        H  0.20103853  0.23237131  0.43092438     0.14500
H427        H  0.22454189  0.21144469  0.54653877     0.14500
H428        H  0.20285345  0.23284985  0.54687491     0.14500
H429        H  0.22283484  0.21345275  0.48851250     0.27700
H430        H  0.20406462  0.23165788  0.48887860     0.27700
N431        N  0.62004667  0.32487126  0.86065920    -0.25700
N432        N  0.62517938  0.33047547  0.84738518    -0.33600
C433        C  0.61690402  0.32437745  0.83572560     0.02600
C434        C  0.60610391  0.31450921  0.84201648     0.08600
C435        C  0.60834685  0.31504880  0.85779551    -0.04500
H436        H  0.61853857  0.32707398  0.82361971     0.09300
H437        H  0.60192594  0.30885212  0.86655522     0.10500
Cu438      Cu  0.64273961  0.34659558  0.84569419     0.44200
Cu439      Cu  0.62909919  0.33086034  0.88207024     0.42000
Cu440      Cu  0.65980893  0.35913198  0.88190256     0.43900
N441        N  0.65923946  0.36380777  0.84730602    -0.33100
N442        N  0.66540534  0.36845525  0.86050903    -0.27400
C443        C  0.67526558  0.38011764  0.85763752    -0.03500
C444        C  0.67523424  0.38285744  0.84193019     0.08700
C445        C  0.66500064  0.37237656  0.83568482     0.02500
H446        H  0.68182211  0.38622537  0.86635733     0.10200
H447        H  0.66181190  0.37117471  0.82364839     0.09300
N448        N  0.65181759  0.34841415  0.90184025    -0.34600
N449        N  0.64051055  0.33812994  0.90190609    -0.26700
C450        C  0.63792839  0.33353245  0.91654820    -0.02000
C451        C  0.64811295  0.34128148  0.92607006     0.06600
C452        C  0.65673349  0.35063528  0.91644086     0.04700
H453        H  0.62921075  0.32526181  0.91999065     0.09800
H454        H  0.66578990  0.35857567  0.91978409     0.08700
N455        N  0.62152847  0.32507656  0.11883478    -0.25700
N456        N  0.62593094  0.33167338  0.13191058    -0.33600
C457        C  0.61768433  0.32574549  0.14366014     0.02600
C458        C  0.60769555  0.31493300  0.13763854     0.08600
C459        C  0.61035416  0.31473622  0.12192645    -0.04500
H460        H  0.61874894  0.32923039  0.15562568     0.09300
H461        H  0.60445432  0.30781849  0.11334411     0.10500
Cu462      Cu  0.64255064  0.34871030  0.13333499     0.44200
Cu463      Cu  0.63042278  0.33077792  0.09732009     0.42000
Cu464      Cu  0.66004413  0.36013501  0.09711257     0.43900
N465        N  0.65923349  0.36566473  0.13156733    -0.33100
N466        N  0.66567649  0.36984092  0.11834293    -0.27400
C467        C  0.67572112  0.38138186  0.12106307    -0.03500
C468        C  0.67551400  0.38452573  0.13669458     0.08700
C469        C  0.66498397  0.37441247  0.14305177     0.02500
H470        H  0.68246590  0.38718756  0.11228026     0.10200
H471        H  0.66156788  0.37360220  0.15505874     0.09300
N472        N  0.65190470  0.34940062  0.07722251    -0.34600
N473        N  0.64099447  0.33869842  0.07730987    -0.26700
C474        C  0.63817296  0.33420334  0.06268427    -0.02000
C475        C  0.64778774  0.34246030  0.05300243     0.06600
C476        C  0.65632812  0.35199581  0.06252558     0.04700
H477        H  0.62972890  0.32560271  0.05937277     0.09800
H478        H  0.66504553  0.36025463  0.05905490     0.08700
N479        N  0.74352658  0.50172729  0.20247637    -0.35000
N480        N  0.76094180  0.52521100  0.21898115    -0.55600
N481        N  0.77664787  0.50109963  0.23662214    -0.35000
N482        N  0.76034922  0.47756252  0.21899311    -0.55600
C483        C  0.73956030  0.51436649  0.19414966     0.28500
C484        C  0.73906909  0.48917733  0.19430196     0.28500
C485        C  0.78506985  0.51358521  0.24082119     0.28500
C486        C  0.78475416  0.48839450  0.24081334     0.28500
C487        C  0.75118440  0.53456784  0.21115445     0.37200
C488        C  0.76855216  0.53423059  0.22920246     0.37200
C489        C  0.75012096  0.46859413  0.21132663     0.37200
C490        C  0.76772291  0.46825746  0.22915166     0.37200
C491        C  0.73224959  0.50978068  0.18063388    -0.20300
C492        C  0.73192823  0.49390599  0.18073406    -0.20300
C493        C  0.79854675  0.50874883  0.24804148    -0.20300
C494        C  0.79834739  0.49287329  0.24803537    -0.20300
C495        C  0.75269765  0.54964293  0.21634520    -0.21400
C496        C  0.76368724  0.54942882  0.22778176    -0.21400
C497        C  0.75114656  0.45346387  0.21650695    -0.21400
C498        C  0.76230093  0.45325023  0.22778795    -0.21400
C499        C  0.74170963  0.52991428  0.19869886    -0.16700
C500        C  0.74060338  0.47361275  0.19903573    -0.16700
C501        C  0.77996073  0.47289219  0.23890961    -0.16700
C502        C  0.78069950  0.52921178  0.23888355    -0.16700
H503        H  0.72756507  0.51710751  0.17164068     0.16200
H504        H  0.72695454  0.48667433  0.17182347     0.16200
H505        H  0.80760770  0.51591213  0.25283495     0.16200
H506        H  0.80722124  0.48547378  0.25282187     0.16200
H507        H  0.74668377  0.55978219  0.21217538     0.14500
H508        H  0.76782379  0.55938023  0.23412307     0.14500
H509        H  0.74468038  0.44356354  0.21244455     0.14500
H510        H  0.76610679  0.44316254  0.23412609     0.14500
H511        H  0.74751838  0.50166768  0.21376936     0.27700
H512        H  0.76535823  0.50126264  0.23261390     0.27700
N513        N  0.66494698  0.63250813  0.86030587    -0.25700
N514        N  0.65844550  0.63659840  0.84707481    -0.33600
C515        C  0.66447010  0.62803309  0.83558598     0.02600
C516        C  0.67523260  0.61815096  0.84194250     0.08600
C517        C  0.67528543  0.62123161  0.85758568    -0.04500
H518        H  0.66111590  0.62883260  0.82356122     0.09300
H519        H  0.68216836  0.61559231  0.86637297     0.10500
Cu520      Cu  0.64132599  0.65323039  0.84520979     0.44200
Cu521      Cu  0.65918672  0.64202043  0.88154590     0.42000
Cu522      Cu  0.62877971  0.67065358  0.88097775     0.43900
N523        N  0.62390914  0.66959181  0.84655211    -0.33100
N524        N  0.61932990  0.67594431  0.85967855    -0.27400
C525        C  0.60769564  0.68580998  0.85676282    -0.03500
C526        C  0.60488475  0.68559916  0.84108322     0.08700
C527        C  0.61529687  0.67524344  0.83490465     0.02500
H528        H  0.60165833  0.69248643  0.86543798     0.10200
H529        H  0.61643982  0.67192909  0.82289931     0.09300
N530        N  0.63972640  0.66339839  0.90093833    -0.34600
N531        N  0.65087307  0.65294980  0.90119073    -0.26700
C532        C  0.65527617  0.65061395  0.91592396    -0.02000
C533        C  0.64646737  0.66006189  0.92525922     0.06600
C534        C  0.63672404  0.66799540  0.91547614     0.04700
H535        H  0.66405807  0.64249200  0.91955312     0.09800
H536        H  0.62796542  0.67632250  0.91866180     0.08700
N537        N  0.62164960  0.67749748  0.11724440    -0.25700
N538        N  0.62617834  0.67141539  0.13052937    -0.33600
C539        C  0.61809814  0.67794230  0.14208769     0.02600
C540        C  0.60811137  0.68857573  0.13568420     0.08600
C541        C  0.61059321  0.68804441  0.11997158    -0.04500
H542        H  0.61921738  0.67494435  0.15418084     0.09300
H543        H  0.60463276  0.69459059  0.11113813     0.10500
Cu544      Cu  0.64264863  0.65411897  0.13234316     0.44200
Cu545      Cu  0.63012945  0.67096502  0.09591949     0.42000
Cu546      Cu  0.65827267  0.64042367  0.09591404     0.43900
N547        N  0.65907347  0.63675998  0.13063689    -0.33100
N548        N  0.66464970  0.63168124  0.11733218    -0.27400
C549        C  0.67503631  0.62046970  0.12015463    -0.03500
C550        C  0.67602164  0.61848023  0.13594532     0.08700
C551        C  0.66578232  0.62892373  0.14228335     0.02500
H552        H  0.68142037  0.61429388  0.11135862     0.10200
H553        H  0.66336642  0.63070750  0.15442545     0.09300
N554        N  0.65085581  0.65154960  0.07599663    -0.34600
N555        N  0.64046537  0.66274442  0.07605018    -0.26700
C556        C  0.63801313  0.66751604  0.06146342    -0.02000
C557        C  0.64734938  0.65892458  0.05184752     0.06600
C558        C  0.65533667  0.64890147  0.06133904     0.04700
H559        H  0.62996044  0.67647983  0.05813631     0.09800
H560        H  0.66365353  0.64024189  0.05787270     0.08700
N561        N  0.35758081  0.67619134  0.86082150    -0.25700
N562        N  0.35341502  0.66939413  0.84777187    -0.33600
C563        C  0.36154049  0.67551534  0.83601565     0.02600
C564        C  0.37119699  0.68666988  0.84201642     0.08600
C565        C  0.36846396  0.68683599  0.85771799    -0.04500
H566        H  0.36052209  0.67204178  0.82404286     0.09300
H567        H  0.37401993  0.69406045  0.86627564     0.10500
Cu568      Cu  0.33696616  0.65210543  0.84651525     0.44200
Cu569      Cu  0.34851303  0.67063010  0.88231196     0.42000
Cu570      Cu  0.31909921  0.64126301  0.88298533     0.43900
N571        N  0.32020152  0.63521195  0.84862528    -0.33100
N572        N  0.31369135  0.63128010  0.86189702    -0.27400
C573        C  0.30352411  0.61982101  0.85934367    -0.03500
C574        C  0.30370147  0.61647694  0.84377108     0.08700
C575        C  0.31434279  0.62637498  0.83726652     0.02500
H576        H  0.29665430  0.61426723  0.86819381     0.10200
H577        H  0.31770770  0.62702610  0.82523605     0.09300
N578        N  0.32707793  0.65230121  0.90269367    -0.34600
N579        N  0.33796447  0.66301860  0.90245646    -0.26700
C580        C  0.34096468  0.66751837  0.91704172    -0.02000
C581        C  0.33147576  0.65924892  0.92683346     0.06600
C582        C  0.32283464  0.64969738  0.91743349     0.04700
H583        H  0.34957098  0.67599091  0.92026327     0.09800
H584        H  0.31432173  0.64127818  0.92102734     0.08700
N585        N  0.36066030  0.67463594  0.11943826    -0.25700
N586        N  0.35617827  0.66818781  0.13256168    -0.33600
C587        C  0.36450249  0.67413307  0.14426774     0.02600
C588        C  0.37463798  0.68478421  0.13814259     0.08600
C589        C  0.37196639  0.68485456  0.12243284    -0.04500
H590        H  0.36326942  0.67090317  0.15629029     0.09300
H591        H  0.37778859  0.69178568  0.11380658     0.10500
Cu592      Cu  0.33914379  0.65149954  0.13395136     0.44200
Cu593      Cu  0.35136314  0.66927065  0.09801882     0.42000
Cu594      Cu  0.32138117  0.64036997  0.09764012     0.43900
N595        N  0.32239522  0.63459066  0.13199434    -0.33100
N596        N  0.31590039  0.63053242  0.11875750    -0.27400
C597        C  0.30569778  0.61912667  0.12141813    -0.03500
C598        C  0.30585551  0.61594999  0.13703176     0.08700
C599        C  0.31650647  0.62589026  0.14343946     0.02500
H600        H  0.29875455  0.61356230  0.11263265     0.10200
H601        H  0.31978690  0.62672918  0.15548167     0.09300
N602        N  0.32967029  0.65100846  0.07786427    -0.34600
N603        N  0.34070084  0.66158058  0.07798599    -0.26700
C604        C  0.34381949  0.66581996  0.06334795    -0.02000
C605        C  0.33428633  0.65749691  0.05365164     0.06600
C606        C  0.32546477  0.64822500  0.06315340     0.04700
H607        H  0.35250588  0.67417546  0.06003410     0.09800
H608        H  0.31679877  0.63992235  0.05965879     0.08700
N609        N  0.49108178  0.78828554  0.23610975    -0.35000
N610        N  0.46717638  0.77257680  0.21827769    -0.55600
N611        N  0.49091174  0.75496713  0.20230269    -0.35000
N612        N  0.51483297  0.77191642  0.21894627    -0.55600
C613        C  0.47853256  0.79648544  0.24048654     0.28500
C614        C  0.50371064  0.79631374  0.24062616     0.28500
C615        C  0.47837601  0.75095859  0.19386310     0.28500
C616        C  0.50355159  0.75061830  0.19421484     0.28500
C617        C  0.45801931  0.78014754  0.22839902     0.37200
C618        C  0.45793202  0.76273253  0.21044380     0.37200
C619        C  0.52400226  0.77931734  0.22918926     0.37200
C620        C  0.52390110  0.76165768  0.21147216     0.37200
C621        C  0.48323486  0.80978131  0.24810675    -0.20300
C622        C  0.49911434  0.80968491  0.24817458    -0.20300
C623        C  0.48310417  0.74373365  0.18035458    -0.20300
C624        C  0.49898469  0.74352976  0.18056805    -0.20300
C625        C  0.44282841  0.77530553  0.22677268    -0.21400
C626        C  0.44277266  0.76427979  0.21539389    -0.21400
C627        C  0.53902893  0.77387703  0.22807667    -0.21400
C628        C  0.53896398  0.76267755  0.21685976    -0.21400
C629        C  0.46297353  0.79196563  0.23848777    -0.16700
C630        C  0.51922912  0.79155173  0.23884965    -0.16700
C631        C  0.51905119  0.75217955  0.19911911    -0.16700
C632        C  0.46280078  0.75296819  0.19832667    -0.16700
H633        H  0.47597924  0.81862450  0.25315439     0.16200
H634        H  0.50643434  0.81842772  0.25330792     0.16200
H635        H  0.47586480  0.73904873  0.17129117     0.16200
H636        H  0.50632679  0.73864259  0.17169982     0.16200
H637        H  0.43279946  0.77938099  0.23303405     0.14500
H638        H  0.43269771  0.75818705  0.21117658     0.14500
H639        H  0.54903218  0.77769386  0.23454423     0.14500
H640        H  0.54891775  0.75618624  0.21296871     0.14500
H641        H  0.49098727  0.77708744  0.23187962     0.27700
H642        H  0.49082731  0.75884991  0.21364123     0.27700
N643        N  0.35584493  0.32199015  0.86254012    -0.25700
N644        N  0.35217960  0.32886350  0.84938696    -0.33600
C645        C  0.36141135  0.32348239  0.83809988     0.02600
C646        C  0.37127714  0.31276068  0.84455410     0.08600
C647        C  0.36749486  0.31204785  0.86000833    -0.04500
H648        H  0.36106583  0.32723603  0.82617184     0.09300
H649        H  0.37292419  0.30501878  0.86881161     0.10500
Cu650      Cu  0.33515414  0.34554286  0.84761190     0.44200
Cu651      Cu  0.34542109  0.32695261  0.88344491     0.42000
Cu652      Cu  0.31629906  0.35690302  0.88352511     0.43900
N653        N  0.31799064  0.36211901  0.84896095    -0.33100
N654        N  0.31110545  0.36631673  0.86196257    -0.27400
C655        C  0.30076088  0.37748689  0.85876408    -0.03500
C656        C  0.30121984  0.38033844  0.84306221     0.08700
C657        C  0.31223194  0.37046799  0.83718184     0.02500
H658        H  0.29358647  0.38319895  0.86725912     0.10200
H659        H  0.31593490  0.36952260  0.82527159     0.09300
N660        N  0.32402910  0.34574723  0.90343392    -0.34600
N661        N  0.33463445  0.33474434  0.90327704    -0.26700
C662        C  0.33745153  0.33012239  0.91785051    -0.02000
C663        C  0.32816061  0.33859642  0.92761027     0.06600
C664        C  0.31980499  0.34841381  0.91818278     0.04700
H665        H  0.34582580  0.32142247  0.92108245     0.09800
H666        H  0.31146088  0.35699891  0.92176686     0.08700
N667        N  0.35970899  0.32485739  0.11958331    -0.25700
N668        N  0.35565308  0.33164289  0.13266740    -0.33600
C669        C  0.36420579  0.32587762  0.14428364     0.02600
C670        C  0.37406187  0.31499812  0.13815508     0.08600
C671        C  0.37098736  0.31458334  0.12251887    -0.04500
H672        H  0.36340907  0.32948579  0.15623252     0.09300
H673        H  0.37660892  0.30749483  0.11389202     0.10500
Cu674      Cu  0.33910371  0.34875630  0.13416819     0.44200
Cu675      Cu  0.35008934  0.33022788  0.09831619     0.42000
Cu676      Cu  0.32113751  0.36043453  0.09826414     0.43900
N677        N  0.32248692  0.36581627  0.13267877    -0.33100
N678        N  0.31583919  0.37003677  0.11956981    -0.27400
C679        C  0.30554280  0.38128345  0.12252467    -0.03500
C680        C  0.30580080  0.38419533  0.13819345     0.08700
C681        C  0.31663194  0.37426590  0.14432884     0.02500
H682        H  0.29843762  0.38690304  0.11390415     0.10200
H683        H  0.31999740  0.37320906  0.15633146     0.09300
N684        N  0.32886965  0.34942380  0.07842503    -0.34600
N685        N  0.33939920  0.33834698  0.07847508    -0.26700
C686        C  0.34194744  0.33370637  0.06385655    -0.02000
C687        C  0.33258206  0.34228435  0.05423067     0.06600
C688        C  0.32444197  0.35213897  0.06375775     0.04700
H689        H  0.35004333  0.32479203  0.06051489     0.09800
H690        H  0.31595330  0.36064688  0.06032083     0.08700
N691        N  0.86094012  0.32331559  0.62315956    -0.25700
N692        N  0.84801419  0.32989619  0.62796778    -0.33600
C693        C  0.83601997  0.32381866  0.62016777     0.02600
C694        C  0.84173942  0.31292484  0.61004607     0.08600
C695        C  0.85752929  0.31286211  0.61217855    -0.04500
H696        H  0.82409473  0.32729378  0.62156947     0.09300
H697        H  0.86595064  0.30599020  0.60600654     0.10500
Cu698      Cu  0.84734002  0.34728389  0.64440403     0.44200
Cu699      Cu  0.88264811  0.32941907  0.63115728     0.42000
Cu700      Cu  0.88392666  0.36020237  0.65975285     0.43900
N701        N  0.84946270  0.36478935  0.66058846    -0.33100
N702        N  0.86284869  0.36952160  0.66624971    -0.27400
C703        C  0.86029317  0.38111557  0.67628526    -0.03500
C704        C  0.84457876  0.38372292  0.67689852     0.08700
C705        C  0.83802647  0.37323701  0.66685266     0.02500
H706        H  0.86921565  0.38723802  0.68254743     0.10200
H707        H  0.82588403  0.37189373  0.66419752     0.09300
N708        N  0.90333275  0.34934262  0.65088612    -0.34600
N709        N  0.90288085  0.33816102  0.64046849    -0.26700
C710        C  0.91740762  0.33382871  0.63704537    -0.02000
C711        C  0.92736073  0.34270530  0.64575468     0.06600
C712        C  0.91815427  0.35241718  0.65437932     0.04700
H713        H  0.92045478  0.32495592  0.62878468     0.09800
H714        H  0.92191403  0.36113668  0.66250982     0.08700
N715        N  0.11927850  0.32429567  0.62035765    -0.25700
N716        N  0.13253887  0.33060483  0.62460866    -0.33600
C717        C  0.14403845  0.32429247  0.61624666     0.02600
C718        C  0.13763022  0.31354163  0.60635392     0.08600
C719        C  0.12196575  0.31381403  0.60920882    -0.04500
H720        H  0.15610170  0.32743616  0.61718454     0.09300
H721        H  0.11313371  0.30707700  0.60347345     0.10500
Cu722      Cu  0.13424416  0.34778908  0.64128695     0.44200
Cu723      Cu  0.09801980  0.33059322  0.62934933     0.42000
Cu724      Cu  0.09799674  0.36133279  0.65753455     0.43900
N725        N  0.13263130  0.36502665  0.65791124    -0.33100
N726        N  0.11939507  0.36995166  0.66376653    -0.27400
C727        C  0.12225312  0.38127185  0.67401155    -0.03500
C728        C  0.13800290  0.38351165  0.67460555     0.08700
C729        C  0.14428503  0.37309861  0.66430106     0.02500
H730        H  0.11349708  0.38746005  0.68043824     0.10200
H731        H  0.15638070  0.37157800  0.66153728     0.09300
N732        N  0.07810845  0.35092387  0.64935074    -0.34600
N733        N  0.07811053  0.33961301  0.63907727    -0.26700
C734        C  0.06343298  0.33549298  0.63607093    -0.02000
C735        C  0.05385301  0.34466542  0.64489149     0.06600
C736        C  0.06343818  0.35431796  0.65317193     0.04700
H737        H  0.06002633  0.32656497  0.62801170     0.09800
H738        H  0.06004371  0.36317924  0.66130818     0.08700
N739        N  0.23369203  0.49950890  0.78021300    -0.35000
N740        N  0.21798113  0.47607566  0.76210726    -0.55600
N741        N  0.20188372  0.50009665  0.74512486    -0.35000
N742        N  0.21837310  0.52358109  0.76241456    -0.55600
C743        C  0.24192125  0.48685555  0.78428359     0.28500
C744        C  0.24192261  0.51201520  0.78466043     0.28500
C745        C  0.19834151  0.48758582  0.73646928     0.28500
C746        C  0.19874125  0.51272787  0.73648180     0.28500
C747        C  0.22485531  0.46684004  0.77264221     0.37200
C748        C  0.20774637  0.46717774  0.75439664     0.37200
C749        C  0.22523916  0.53251680  0.77320182     0.37200
C750        C  0.20854886  0.53281741  0.75455598     0.37200
C751        C  0.25543402  0.49137933  0.79162732    -0.20300
C752        C  0.25542876  0.50725567  0.79188005    -0.20300
C753        C  0.19276972  0.49231216  0.72219413    -0.20300
C754        C  0.19302997  0.50819210  0.72219710    -0.20300
C755        C  0.21904910  0.45195445  0.77154885    -0.21400
C756        C  0.20817070  0.45217554  0.75999834    -0.21400
C757        C  0.21985898  0.54756981  0.77210526    -0.21400
C758        C  0.20926265  0.54775667  0.76028185    -0.21400
C759        C  0.23718313  0.47136918  0.78228458    -0.16700
C760        C  0.23721415  0.52755551  0.78309268    -0.16700
C761        C  0.19992289  0.52818458  0.74152313    -0.16700
C762        C  0.19909666  0.47209395  0.74148965    -0.16700
H763        H  0.26433435  0.48401087  0.79641267     0.16200
H764        H  0.26433818  0.51446734  0.79688151     0.16200
H765        H  0.18878114  0.48507368  0.71280588     0.16200
H766        H  0.18927325  0.51555988  0.71280896     0.16200
H767        H  0.22248692  0.44192733  0.77818664     0.14500
H768        H  0.20159996  0.44233983  0.75594604     0.14500
H769        H  0.22341077  0.55744069  0.77891125     0.14500
H770        H  0.20303395  0.55779291  0.75617653     0.14500
H771        H  0.22239197  0.49960747  0.77619792     0.27700
H772        H  0.20445896  0.50003116  0.75685050     0.27700
N773        N  0.86190495  0.67680423  0.62315422    -0.25700
N774        N  0.84878573  0.67008109  0.62723658    -0.33600
C775        C  0.83719443  0.67607511  0.61877873     0.02600
C776        C  0.84336787  0.68703669  0.60899369     0.08600
C777        C  0.85900556  0.68724382  0.61200703    -0.04500
H778        H  0.82521752  0.67258980  0.61960309     0.09300
H779        H  0.86767504  0.69430325  0.60641148     0.10500
Cu780      Cu  0.84712038  0.65283853  0.64384122     0.44200
Cu781      Cu  0.88331748  0.67130971  0.63238517     0.42000
Cu782      Cu  0.88342109  0.64115758  0.66092230     0.43900
N783        N  0.84900799  0.63586930  0.66069932    -0.33100
N784        N  0.86232104  0.63168951  0.66694347    -0.27400
C785        C  0.85977258  0.62044444  0.67735667    -0.03500
C786        C  0.84414107  0.61744590  0.67763491     0.08700
C787        C  0.83760445  0.62735886  0.66697953     0.02500
H788        H  0.86866469  0.61481574  0.68410930     0.10200
H789        H  0.82551082  0.62827479  0.66394444     0.09300
N790        N  0.90328402  0.65199210  0.65322755    -0.34600
N791        N  0.90329257  0.66314378  0.64278005    -0.26700
C792        C  0.91795032  0.66764542  0.64019482    -0.02000
C793        C  0.92750170  0.65888585  0.64949351     0.06600
C794        C  0.91790918  0.64907283  0.65758121     0.04700
H795        H  0.92137237  0.67651061  0.63206826     0.09800
H796        H  0.92127930  0.64038797  0.66592223     0.08700
N797        N  0.11946842  0.67531731  0.62098443    -0.25700
N798        N  0.13244376  0.66816838  0.62476707    -0.33600
C799        C  0.14398195  0.67350164  0.61582057     0.02600
C800        C  0.13793686  0.68450486  0.60601250     0.08600
C801        C  0.12241886  0.68542144  0.60953549    -0.04500
H802        H  0.15584576  0.66960331  0.61639755     0.09300
H803        H  0.11386885  0.69274161  0.60409446     0.10500
Cu804      Cu  0.13397555  0.65149146  0.64186120     0.44200
Cu805      Cu  0.09821935  0.67060721  0.63109487     0.42000
Cu806      Cu  0.09834634  0.64200063  0.66153499     0.43900
N807        N  0.13250316  0.63566379  0.65974559    -0.33100
N808        N  0.11949702  0.63233250  0.66705116    -0.27400
C809        C  0.12229347  0.62132218  0.67765263    -0.03500
C810        C  0.13776033  0.61761445  0.67691046     0.08700
C811        C  0.14393800  0.62685287  0.66549211     0.02500
H812        H  0.11362163  0.61611633  0.68500375     0.10200
H813        H  0.15574870  0.62692150  0.66139404     0.09300
N814        N  0.07844358  0.65221462  0.65310257    -0.34600
N815        N  0.07834419  0.66272073  0.64199494    -0.26700
C816        C  0.06362613  0.66675786  0.63899750    -0.02000
C817        C  0.05413455  0.65837393  0.64869680     0.06600
C818        C  0.06382495  0.64926807  0.65746653     0.04700
H819        H  0.06012333  0.67505890  0.63032662     0.09800
H820        H  0.06052738  0.64103404  0.66628138     0.08700
N821        N  0.23720545  0.78605226  0.48893473    -0.35000
N822        N  0.22010095  0.76966215  0.46503258    -0.55600
N823        N  0.20428963  0.75193545  0.48880356    -0.35000
N824        N  0.22039961  0.76930350  0.51270084    -0.55600
C825        C  0.24125772  0.79441444  0.47636203     0.28500
C826        C  0.24133756  0.79428568  0.50156494     0.28500
C827        C  0.19598292  0.74782852  0.47619867     0.28500
C828        C  0.19601610  0.74777867  0.50140920     0.28500
C829        C  0.23041262  0.77712835  0.45599229     0.37200
C830        C  0.21301802  0.75914318  0.45592175     0.37200
C831        C  0.23060192  0.77680197  0.52183000     0.37200
C832        C  0.21316120  0.75886502  0.52176861     0.37200
C833        C  0.24822717  0.80806418  0.48105358    -0.20300
C834        C  0.24827481  0.80798603  0.49695657    -0.20300
C835        C  0.18235992  0.74078162  0.48084876    -0.20300
C836        C  0.18237555  0.74075805  0.49675189    -0.20300
C837        C  0.22972118  0.77147513  0.44100705    -0.21400
C838        C  0.21869743  0.76007863  0.44096338    -0.21400
C839        C  0.22974391  0.77119871  0.53682929    -0.21400
C840        C  0.21868898  0.75982824  0.53678992    -0.21400
C841        C  0.23974277  0.78960061  0.46082426    -0.16700
C842        C  0.23983236  0.78937481  0.51707843    -0.16700
C843        C  0.20082577  0.74935202  0.51695312    -0.16700
C844        C  0.20076118  0.74948784  0.46065973    -0.16700
H845        H  0.25294084  0.81708095  0.47377764     0.16200
H846        H  0.25302413  0.81694064  0.50428278     0.16200
H847        H  0.17337783  0.73604415  0.47354516     0.16200
H848        H  0.17340415  0.73599483  0.50405136     0.16200
H849        H  0.23634890  0.77527142  0.43109832     0.14500
H850        H  0.21514485  0.75337829  0.43101629     0.14500
H851        H  0.23622566  0.77506225  0.54680915     0.14500
H852        H  0.21496945  0.75321216  0.54673585     0.14500
H853        H  0.23354069  0.77466287  0.48887565     0.27700
H854        H  0.21566334  0.75569697  0.48879689     0.27700
N855        N  0.86171453  0.67607472  0.35987780    -0.25700
N856        N  0.84854238  0.66972013  0.35541649    -0.33600
C857        C  0.83691807  0.67586521  0.36372018     0.02600
C858        C  0.84314441  0.68653061  0.37380807     0.08600
C859        C  0.85884241  0.68639822  0.37113081    -0.04500
H860        H  0.82486991  0.67275620  0.36251950     0.09300
H861        H  0.86754360  0.69328412  0.37689088     0.10500
Cu862      Cu  0.84697776  0.65291338  0.33832622     0.44200
Cu863      Cu  0.88299841  0.67069546  0.35040756     0.42000
Cu864      Cu  0.88291040  0.64261695  0.31951436     0.43900
N865        N  0.84870851  0.63616422  0.32119624    -0.33100
N866        N  0.86185417  0.63248525  0.31431256    -0.27400
C867        C  0.85920230  0.62119012  0.30397397    -0.03500
C868        C  0.84368269  0.61763320  0.30441004     0.08700
C869        C  0.83732405  0.62728142  0.31540738     0.02500
H870        H  0.86795197  0.61591331  0.29677201     0.10200
H871        H  0.82536005  0.62777489  0.31899866     0.09300
N872        N  0.90267575  0.65360122  0.32738452    -0.34600
N873        N  0.90270302  0.66382937  0.33874032    -0.26700
C874        C  0.91728353  0.66855717  0.34129122    -0.02000
C875        C  0.92679219  0.66092044  0.33104586     0.06600
C876        C  0.91725084  0.65152621  0.32240398     0.04700
H877        H  0.92068751  0.67681009  0.35004308     0.09800
H878        H  0.92063276  0.64365212  0.31330289     0.08700
N879        N  0.11920947  0.67891847  0.35429518    -0.25700
N880        N  0.13210782  0.67172119  0.35036016    -0.33600
C881        C  0.14364004  0.67658129  0.35959373     0.02600
C882        C  0.13764899  0.68731760  0.36973739     0.08600
C883        C  0.12218576  0.68855936  0.36611535    -0.04500
H884        H  0.15545196  0.67253365  0.35899806     0.09300
H885        H  0.11368068  0.69579104  0.37173435     0.10500
Cu886      Cu  0.13337849  0.65541085  0.33286204     0.44200
Cu887      Cu  0.09795300  0.67482906  0.34404491     0.42000
Cu888      Cu  0.09682266  0.64455729  0.31541675     0.43900
N889        N  0.13124864  0.63908168  0.31547778    -0.33100
N890        N  0.11791665  0.63504826  0.30916847    -0.27400
C891        C  0.12046207  0.62389474  0.29864215    -0.03500
C892        C  0.13610621  0.62086320  0.29836330     0.08700
C893        C  0.14262964  0.63061931  0.30913458     0.02500
H894        H  0.11155828  0.61827363  0.29190061     0.10200
H895        H  0.15469177  0.63133589  0.31234413     0.09300
N896        N  0.07729718  0.65591980  0.32341206    -0.34600
N897        N  0.07773624  0.66715742  0.33375922    -0.26700
C898        C  0.06323758  0.67195431  0.33666227    -0.02000
C899        C  0.05329293  0.66331633  0.32768959     0.06600
C900        C  0.06250234  0.65325088  0.31945120     0.04700
H901        H  0.06018159  0.68087330  0.34486926     0.09800
H902        H  0.05875124  0.64452860  0.31131944     0.08700
N903        N  0.86103277  0.32606051  0.36014064    -0.25700
N904        N  0.84778464  0.33202072  0.35536869    -0.33600
C905        C  0.83618971  0.32605129  0.36382572     0.02600
C906        C  0.84249572  0.31588850  0.37434944     0.08600
C907        C  0.85821679  0.31612953  0.37176867    -0.04500
H908        H  0.82411214  0.32897255  0.36245000     0.09300
H909        H  0.86697158  0.30964044  0.37789806     0.10500
Cu910      Cu  0.84599926  0.34814911  0.33777174     0.44200
Cu911      Cu  0.88235778  0.33167811  0.35071073     0.42000
Cu912      Cu  0.88181588  0.35906651  0.31914169     0.43900
N913        N  0.84743802  0.36461232  0.32044754    -0.33100
N914        N  0.86052870  0.36860294  0.31363511    -0.27400
C915        C  0.85765972  0.37993987  0.30338854    -0.03500
C916        C  0.84205746  0.38315990  0.30382460     0.08700
C917        C  0.83588460  0.37329148  0.31471583     0.02500
H918        H  0.86633502  0.38558666  0.29637625     0.10200
H919        H  0.82396254  0.37264705  0.31842276     0.09300
N920        N  0.90184270  0.34891225  0.32752687    -0.34600
N921        N  0.90207584  0.33898254  0.33915421    -0.26700
C922        C  0.91681102  0.33494325  0.34206717    -0.02000
C923        C  0.92620133  0.34271619  0.33177698     0.06600
C924        C  0.91641066  0.35145741  0.32272700     0.04700
H925        H  0.92040118  0.32707310  0.35109793     0.09800
H926        H  0.91962005  0.35924883  0.31348753     0.08700
N927        N  0.11827009  0.32327875  0.35714461    -0.25700
N928        N  0.13146357  0.32967302  0.35280150    -0.33600
C929        C  0.14302241  0.32376367  0.36136238     0.02600
C930        C  0.13674897  0.31318643  0.37149941     0.08600
C931        C  0.12108509  0.31312079  0.36857592    -0.04500
H932        H  0.15504868  0.32702067  0.36033810     0.09300
H933        H  0.11235469  0.30631897  0.37439149     0.10500
Cu934      Cu  0.13318797  0.34634085  0.33566473     0.44200
Cu935      Cu  0.09695917  0.32886869  0.34767089     0.42000
Cu936      Cu  0.09711807  0.35885162  0.31853262     0.43900
N937        N  0.13173520  0.36310344  0.31858996    -0.33100
N938        N  0.11854368  0.36775183  0.31241269    -0.27400
C939        C  0.12147875  0.37896764  0.30204794    -0.03500
C940        C  0.13722887  0.38141689  0.30172191     0.08700
C941        C  0.14341775  0.37122654  0.31231188     0.02500
H942        H  0.11277006  0.38501089  0.29541660     0.10200
H943        H  0.15546007  0.36997196  0.31542849     0.09300
N944        N  0.07720416  0.34784101  0.32613847    -0.34600
N945        N  0.07713858  0.33683376  0.33675266    -0.26700
C946        C  0.06248289  0.33222209  0.33917976    -0.02000
C947        C  0.05296500  0.34072530  0.32960997     0.06600
C948        C  0.06259828  0.35052457  0.32152390     0.04700
H949        H  0.05902769  0.32348118  0.34742663     0.09800
H950        H  0.05925404  0.35908889  0.31304911     0.08700
N951        N  0.23242706  0.50049227  0.19869004    -0.35000
N952        N  0.21585565  0.52431679  0.21565291    -0.55600
N953        N  0.19827812  0.50058205  0.23176278    -0.35000
N954        N  0.21576806  0.47676021  0.21579640    -0.55600
C955        C  0.24062544  0.51308677  0.19440691     0.28500
C956        C  0.24072518  0.48790482  0.19459984     0.28500
C957        C  0.19437696  0.51320275  0.24012230     0.28500
C958        C  0.19422135  0.48801497  0.24013613     0.28500
C959        C  0.22335098  0.53338950  0.20540237     0.37200
C960        C  0.20542503  0.53342035  0.22283917     0.37200
C961        C  0.22361777  0.46756920  0.20592000     0.37200
C962        C  0.20545371  0.46763504  0.22315564     0.37200
C963        C  0.25416067  0.50844279  0.18717500    -0.20300
C964        C  0.25422371  0.49256541  0.18729477    -0.20300
C965        C  0.18756402  0.50860279  0.25388933    -0.20300
C966        C  0.18745337  0.49271253  0.25389273    -0.20300
C967        C  0.21774237  0.54837356  0.20616304    -0.21400
C968        C  0.20636470  0.54839052  0.21720373    -0.21400
C969        C  0.21834926  0.45248564  0.20710186    -0.21400
C970        C  0.20682216  0.45253286  0.21799711    -0.21400
C971        C  0.23592613  0.52861953  0.19620087    -0.16700
C972        C  0.23618350  0.47234770  0.19666775    -0.16700
C973        C  0.19581252  0.47246392  0.23540295    -0.16700
C974        C  0.19601665  0.52871539  0.23528924    -0.16700
H975        H  0.26306389  0.51572658  0.18226661     0.16200
H976        H  0.26319083  0.48529035  0.18249843     0.16200
H977        H  0.18304003  0.51593356  0.26295476     0.16200
H978        H  0.18285182  0.48544779  0.26297755     0.16200
H979        H  0.22159391  0.55830357  0.19960688     0.14500
H980        H  0.19974616  0.55834710  0.22085944     0.14500
H981        H  0.22252763  0.44244767  0.20092863     0.14500
H982        H  0.20042228  0.44252870  0.22191203     0.14500
H983        H  0.22115211  0.50048014  0.20273490     0.27700
H984        H  0.20186760  0.50055764  0.22030771     0.27700
C985        C  0.15941556  0.41490546  0.27693242     0.18600
C986        C  0.15402239  0.43012857  0.27805295    -0.10500
C987        C  0.16117952  0.44192236  0.26961772    -0.11400
C988        C  0.17376931  0.43855311  0.26001345     0.20200
C989        C  0.17918395  0.42333808  0.25891025    -0.13400
C990        C  0.17202879  0.41154283  0.26735028    -0.11700
C991        C  0.18119682  0.45068152  0.25136673     0.01100
C992        C  0.18768344  0.46067832  0.24412761    -0.31700
C993        C  0.15192898  0.40277422  0.28554342     0.02500
C994        C  0.14537232  0.39286665  0.29284355    -0.33400
H995        H  0.14428051  0.43286936  0.28542144     0.13500
H996        H  0.15690773  0.45364370  0.27058227     0.13400
H997        H  0.18892273  0.42060313  0.25153408     0.13200
H998        H  0.17630327  0.39982349  0.26638521     0.12300
C999        C  0.00576830  0.34040608  0.32851624     0.18600
C1000       C  0.99732094  0.32686644  0.33124251    -0.10500
C1001       C  0.98116283  0.32734288  0.33177247    -0.11400
C1002       C  0.97335966  0.34135740  0.32957949     0.20200
C1003       C  0.98180320  0.35488028  0.32675265    -0.13400
C1004       C  0.99796005  0.35440356  0.32622145    -0.11700
C1005       C  0.95672433  0.34185815  0.33031128     0.01100
C1006       C  0.94279837  0.34222232  0.33097159    -0.31700
C1007       C  0.02242438  0.34004896  0.32848318     0.02500
C1008       C  0.03636701  0.34013408  0.32883728    -0.33400
H1009       H  0.00321964  0.31598329  0.33307152     0.13500
H1010       H  0.97476449  0.31681254  0.33396192     0.13400
H1011       H  0.97590912  0.36578467  0.32503391     0.13200
H1012       H  0.00436129  0.36495499  0.32414138     0.12300
C1013       C  0.15868255  0.58719841  0.27434602     0.18600
C1014       C  0.16504241  0.57486514  0.28268731    -0.10500
C1015       C  0.17264450  0.56291506  0.27492580    -0.11400
C1016       C  0.17391864  0.56324799  0.25878886     0.20200
C1017       C  0.16768375  0.57564819  0.25044766    -0.13400
C1018       C  0.16007178  0.58760159  0.25821236    -0.11700
C1019       C  0.18154780  0.55084835  0.25079145     0.01100
C1020       C  0.18800553  0.54060761  0.24391712    -0.31700
C1021       C  0.15062866  0.59932430  0.28236763     0.02500
C1022       C  0.14391913  0.60926079  0.28944621    -0.33400
H1023       H  0.16405048  0.57445040  0.29516668     0.13500
H1024       H  0.17745096  0.55339567  0.28148367     0.13400
H1025       H  0.16864133  0.57603029  0.23796371     0.13200
H1026       H  0.15521506  0.59709249  0.25165139     0.12300
C1027       C  0.00615092  0.66427850  0.32756866     0.18600
C1028       C  0.99788898  0.67690504  0.33343143    -0.10500
C1029       C  0.98173114  0.67650147  0.33389332    -0.11400
C1030       C  0.97378377  0.66347190  0.32849346     0.20200
C1031       C  0.98204569  0.65090020  0.32254193    -0.13400
C1032       C  0.99818721  0.65130381  0.32207975    -0.11700
C1033       C  0.95718742  0.66287102  0.32924549     0.01100
C1034       C  0.94330450  0.66208688  0.32998976    -0.31700
C1035       C  0.02278303  0.66444604  0.32745040     0.02500
C1036       C  0.03671155  0.66412542  0.32749056    -0.33400
H1037       H  0.00392856  0.68698725  0.33773112     0.13500
H1038       H  0.97545330  0.68628144  0.33853396     0.13400
H1039       H  0.97601863  0.64076383  0.31835089     0.13200
H1040       H  0.00445723  0.64146863  0.31754728     0.12300
C1041       C  0.16072087  0.71054079  0.40371937     0.18600
C1042       C  0.15644595  0.70873877  0.41924294    -0.10500
C1043       C  0.16452318  0.71658531  0.43085033    -0.11400
C1044       C  0.17690792  0.72627121  0.42698604     0.20200
C1045       C  0.18113526  0.72812590  0.41145835    -0.13400
C1046       C  0.17305963  0.72028254  0.39985371    -0.11700
C1047       C  0.18526374  0.73431192  0.43892252     0.01100
C1048       C  0.19228645  0.74114637  0.44884120    -0.31700
C1049       C  0.15254846  0.70232032  0.39177702     0.02500
C1050       C  0.14577399  0.69543686  0.38172914    -0.33400
H1051       H  0.14692127  0.70124276  0.42236815     0.13500
H1052       H  0.16114048  0.71508362  0.44281615     0.13400
H1053       H  0.19067799  0.73560111  0.40833564     0.13200
H1054       H  0.17646315  0.72176885  0.38789212     0.12300
C1055       C  0.17711720  0.72545958  0.55017944     0.18600
C1056       C  0.18524978  0.71613862  0.56062621    -0.10500
C1057       C  0.17727931  0.70777742  0.57193240    -0.11400
C1058       C  0.16114321  0.70871187  0.57284293     0.20200
C1059       C  0.15301176  0.71803642  0.56239334    -0.13400
C1060       C  0.16098323  0.72639418  0.55108244    -0.11700
C1061       C  0.15294537  0.70016155  0.58452035     0.01100
C1062       C  0.14608331  0.69303104  0.59432832    -0.31700
C1063       C  0.18532415  0.73397939  0.53850268     0.02500
C1064       C  0.19230777  0.74100627  0.52870879    -0.33400
H1065       H  0.19772708  0.71532999  0.56001983     0.13500
H1066       H  0.18368264  0.70060814  0.57995586     0.13400
H1067       H  0.14053527  0.71884611  0.56299704     0.13200
H1068       H  0.15458391  0.73355746  0.54304977     0.12300
C1069       C  0.00701084  0.65907020  0.65063525     0.18600
C1070       C  0.99906535  0.67270034  0.65425489    -0.10500
C1071       C  0.98289903  0.67284863  0.65446478    -0.11400
C1072       C  0.97461758  0.65936491  0.65105731     0.20200
C1073       C  0.98256835  0.64569929  0.64760879    -0.13400
C1074       C  0.99872412  0.64555141  0.64739813    -0.11700
C1075       C  0.95798977  0.65957593  0.65078261     0.01100
C1076       C  0.94407039  0.65945208  0.65025728    -0.31700
C1077       C  0.02363490  0.65898618  0.65002194     0.02500
C1078       C  0.03755209  0.65879804  0.64938681    -0.33400
H1079       H  0.00535601  0.68321761  0.65678782     0.13500
H1080       H  0.97687043  0.68348012  0.65714658     0.13400
H1081       H  0.97628231  0.63520741  0.64495706     0.13200
H1082       H  0.00474391  0.63494535  0.64459669     0.12300
C1083       C  0.17641588  0.56088411  0.71684576     0.18600
C1084       C  0.16734854  0.57163135  0.72484183    -0.10500
C1085       C  0.15919555  0.58295305  0.71671788    -0.11400
C1086       C  0.16008158  0.58356896  0.70056546     0.20200
C1087       C  0.16899572  0.57269916  0.69253910    -0.13400
C1088       C  0.17715213  0.56136263  0.70067130    -0.11700
C1089       C  0.15209633  0.59554091  0.69228398     0.01100
C1090       C  0.14554446  0.60567745  0.68536247    -0.31700
C1091       C  0.18501098  0.54946530  0.72529086     0.02500
C1092       C  0.19199503  0.53991527  0.73262186    -0.33400
H1093       H  0.16667908  0.57132553  0.73734616     0.13500
H1094       H  0.15232494  0.59129793  0.72302521     0.13400
H1095       H  0.16974177  0.57307542  0.68004071     0.13200
H1096       H  0.18410110  0.55306837  0.69438158     0.12300
C1097       C  0.16048325  0.41615649  0.70007829     0.18600
C1098       C  0.15866589  0.43173948  0.69610256    -0.10500
C1099       C  0.16638824  0.44317824  0.70449451    -0.11400
C1100       C  0.17595301  0.43907140  0.71689376     0.20200
C1101       C  0.17769547  0.42350067  0.72094016    -0.13400
C1102       C  0.16997388  0.41205920  0.71254477    -0.11700
C1103       C  0.18405436  0.45080306  0.72539788     0.01100
C1104       C  0.19090668  0.46053331  0.73261085    -0.31700
C1105       C  0.15270111  0.40440270  0.69128056     0.02500
C1106       C  0.14610041  0.39474668  0.68373014    -0.33400
H1107       H  0.15134440  0.43502974  0.68648935     0.13500
H1108       H  0.16495902  0.45519072  0.70128567     0.13400
H1109       H  0.18505958  0.42021562  0.73052429     0.13200
H1110       H  0.17144883  0.40004529  0.71572162     0.12300
C1111       C  0.00677888  0.34361299  0.64565767     0.18600
C1112       C  0.99903243  0.33178159  0.65353665    -0.10500
C1113       C  0.98288304  0.33129167  0.65353778    -0.11400
C1114       C  0.97443994  0.34263176  0.64565463     0.20200
C1115       C  0.98218998  0.35448379  0.63781858    -0.13400
C1116       C  0.99833065  0.35497355  0.63781781    -0.11700
C1117       C  0.95783975  0.34220325  0.64565940     0.01100
C1118       C  0.94392504  0.34222364  0.64565758    -0.31700
C1119       C  0.02337899  0.34403172  0.64550326     0.02500
C1120       C  0.03728841  0.34433874  0.64525783    -0.33400
H1121       H  0.00546703  0.32294094  0.65963234     0.13500
H1122       H  0.97699463  0.32209411  0.65965639     0.13400
H1123       H  0.97576100  0.36332227  0.63171300     0.13200
H1124       H  0.00421361  0.36416860  0.63168965     0.12300
C1125       C  0.26217711  0.43901004  0.17558700     0.18600
C1126       C  0.25857533  0.42335703  0.17755665    -0.10500
C1127       C  0.26742393  0.41204289  0.17016311    -0.11400
C1128       C  0.27990057  0.41635871  0.16078987     0.20200
C1129       C  0.28350854  0.43200953  0.15884998    -0.13400
C1130       C  0.27466702  0.44331550  0.16623961    -0.11700
C1131       C  0.28897191  0.40478317  0.15308609     0.01100
C1132       C  0.29665501  0.39530458  0.14640373    -0.31700
C1133       C  0.25300501  0.45066173  0.18304132     0.02500
C1134       C  0.24532748  0.46049589  0.18920319    -0.33400
H1135       H  0.24892587  0.41991879  0.18475658     0.13500
H1136       H  0.26453425  0.39996818  0.17172763     0.13400
H1137       H  0.29312735  0.43546173  0.15161669     0.13200
H1138       H  0.27753391  0.45539191  0.16463868     0.12300
C1139       C  0.26153735  0.43715929  0.80402126     0.18600
C1140       C  0.25749710  0.42168405  0.80154231    -0.10500
C1141       C  0.26549607  0.40990218  0.80919810    -0.11400
C1142       C  0.27756565  0.41355874  0.81936208     0.20200
C1143       C  0.28170115  0.42902914  0.82170443    -0.13400
C1144       C  0.27370731  0.44080346  0.81405306    -0.11700
C1145       C  0.28561218  0.40151460  0.82754796     0.01100
C1146       C  0.29256714  0.39172882  0.83462394    -0.31700
C1147       C  0.25306663  0.44928750  0.79644774     0.02500
C1148       C  0.24585480  0.45937731  0.79010980    -0.33400
H1149       H  0.24810851  0.41874583  0.79379415     0.13500
H1150       H  0.26220986  0.39798197  0.80728269     0.13400
H1151       H  0.29102492  0.43198644  0.82952103     0.13200
H1152       H  0.27693400  0.45273000  0.81603926     0.12300
C1153       C  0.32961068  0.33908657  0.00721359     0.18600
C1154       C  0.33712223  0.32714242  0.99926316    -0.10500
C1155       C  0.33642709  0.32645357  0.98310098    -0.11400
C1156       C  0.32820966  0.33770603  0.97483051     0.20200
C1157       C  0.32055250  0.34951886  0.98280897    -0.13400
C1158       C  0.32124923  0.35020846  0.99894615    -0.11700
C1159       C  0.32796292  0.33747560  0.95817074     0.01100
C1160       C  0.32789597  0.33785594  0.94422332    -0.31700
C1161       C  0.33064335  0.34010341  0.02380610     0.02500
C1162       C  0.33151488  0.34112679  0.03768731    -0.33400
H1163       H  0.34361610  0.31846967  0.00553595     0.13500
H1164       H  0.34241469  0.31727273  0.97706235     0.13400
H1165       H  0.31418451  0.35828850  0.97654415     0.13200
H1166       H  0.31538920  0.35948574  0.00496194     0.12300
C1167       C  0.27977580  0.58396558  0.15961807     0.18600
C1168       C  0.28590575  0.57568613  0.17210866    -0.10500
C1169       C  0.27688467  0.56462640  0.17966668    -0.11400
C1170       C  0.26171902  0.56183200  0.17474868     0.20200
C1171       C  0.25556299  0.57018341  0.16232722    -0.13400
C1172       C  0.26458083  0.58123531  0.15476958    -0.11700
C1173       C  0.25254320  0.55026163  0.18229715     0.01100
C1174       C  0.24492023  0.54045069  0.18854951    -0.31700
C1175       C  0.28907772  0.59519561  0.15171042     0.02500
C1176       C  0.29677599  0.60463340  0.14500230    -0.33400
H1177       H  0.29764638  0.57773147  0.17594456     0.13500
H1178       H  0.28174124  0.55821274  0.18926478     0.13400
H1179       H  0.24384502  0.56809398  0.15844730     0.13200
H1180       H  0.25974259  0.58759424  0.14512624     0.12300
C1181       C  0.40678861  0.71091530  0.16052329     0.18600
C1182       C  0.40345104  0.71825296  0.17456403    -0.10500
C1183       C  0.41477674  0.72709832  0.18195322    -0.11400
C1184       C  0.42946521  0.72863450  0.17531831     0.20200
C1185       C  0.43277061  0.72136276  0.16124291    -0.13400
C1186       C  0.42144999  0.71252459  0.15385576    -0.11700
C1187       C  0.44121011  0.73745328  0.18306743     0.01100
C1188       C  0.45105959  0.74462297  0.18980532    -0.31700
C1189       C  0.39523575  0.70168220  0.15296380     0.02500
C1190       C  0.38575118  0.69392473  0.14636602    -0.33400
H1191       H  0.39214445  0.71708698  0.17980985     0.13500
H1192       H  0.41211759  0.73266746  0.19284852     0.13400
H1193       H  0.44410032  0.72246598  0.15603260     0.13200
H1194       H  0.42413984  0.70690280  0.14299602     0.12300
C1195       C  0.26171217  0.56039035  0.80648559     0.18600
C1196       C  0.26989132  0.55669150  0.81996413    -0.10500
C1197       C  0.27845210  0.56807225  0.82758579    -0.11400
C1198       C  0.27885161  0.58315657  0.82172976     0.20200
C1199       C  0.27069147  0.58682731  0.80824171    -0.13400
C1200       C  0.26213500  0.57545977  0.80063173    -0.11700
C1201       C  0.28761451  0.59488298  0.82953218     0.01100
C1202       C  0.29493925  0.60476684  0.83601232    -0.31700
C1203       C  0.25294633  0.54875714  0.79857221     0.02500
C1204       C  0.24567825  0.53914639  0.79163614    -0.33400
H1205       H  0.26964830  0.54504980  0.82455621     0.13500
H1206       H  0.28474055  0.56512731  0.83800992     0.13400
H1207       H  0.27094257  0.59845763  0.80362468     0.13200
H1208       H  0.25585844  0.57840827  0.79020075     0.12300
C1209       C  0.33313433  0.65877361  0.00646569     0.18600
C1210       C  0.33107688  0.64508458  0.99807923    -0.10500
C1211       C  0.33048191  0.64547413  0.98192019    -0.11400
C1212       C  0.33194021  0.65955138  0.97405475     0.20200
C1213       C  0.33401399  0.67324566  0.98243935    -0.13400
C1214       C  0.33460852  0.67285604  0.99860749    -0.11700
C1215       C  0.33148569  0.65986677  0.95740243     0.01100
C1216       C  0.33133215  0.65976280  0.94345278    -0.31700
C1217       C  0.33363364  0.65837246  0.02310826     0.02500
C1218       C  0.33395395  0.65800468  0.03704548    -0.33400
H1219       H  0.32991978  0.63413029  0.00402475     0.13500
H1220       H  0.32890682  0.63481007  0.97556340     0.13400
H1221       H  0.33518851  0.68419451  0.97648885     0.13200
H1222       H  0.33620054  0.68351382  0.00497072     0.12300
C1223       C  0.55234566  0.72899344  0.17503213     0.18600
C1224       C  0.56706954  0.72712026  0.18147565    -0.10500
C1225       C  0.57850843  0.71921909  0.17327901    -0.11400
C1226       C  0.57525279  0.71318131  0.15861925     0.20200
C1227       C  0.56053277  0.71508139  0.15215622    -0.13400
C1228       C  0.54908789  0.72298406  0.16035799    -0.11700
C1229       C  0.58695126  0.70483164  0.15034675     0.01100
C1230       C  0.59671038  0.69756877  0.14362108    -0.31700
C1231       C  0.54059755  0.73707829  0.18347982     0.02500
C1232       C  0.53078882  0.74390619  0.19058239    -0.33400
H1233       H  0.56968483  0.73173751  0.19281968     0.13500
H1234       H  0.58985210  0.71777357  0.17837695     0.13400
H1235       H  0.55790271  0.71041951  0.14083465     0.13200
H1236       H  0.53772315  0.72438551  0.15529204     0.12300
C1237       C  0.64793432  0.66063529  0.00474821     0.18600
C1238       C  0.64737596  0.64675666  0.99645505    -0.10500
C1239       C  0.64702037  0.64697934  0.98030403    -0.11400
C1240       C  0.64722072  0.66108111  0.97236967     0.20200
C1241       C  0.64773561  0.67497775  0.98065266    -0.13400
C1242       C  0.64809033  0.67475469  0.99682358    -0.11700
C1243       C  0.64698079  0.66121228  0.95574763     0.01100
C1244       C  0.64680096  0.66087559  0.94182486    -0.31700
C1245       C  0.64816219  0.66033199  0.02137109     0.02500
C1246       C  0.64802459  0.65978079  0.03528986    -0.33400
H1247       H  0.64720728  0.63578055  0.00247079     0.13500
H1248       H  0.64661373  0.63617130  0.97400783     0.13400
H1249       H  0.64788470  0.68594669  0.97462421     0.13200
H1250       H  0.64847686  0.68555532  0.00313212     0.12300
C1251       C  0.82148635  0.58494834  0.27860002     0.18600
C1252       C  0.80787838  0.58878233  0.27070530    -0.10500
C1253       C  0.79995451  0.57752226  0.26224663    -0.11400
C1254       C  0.80559765  0.56237093  0.26164401     0.20200
C1255       C  0.81932541  0.55857526  0.26934943    -0.13400
C1256       C  0.82725510  0.56984211  0.27781111    -0.11700
C1257       C  0.79707300  0.55066271  0.25348209     0.01100
C1258       C  0.78968519  0.54089214  0.24684705    -0.31700
C1259       C  0.82936082  0.59645207  0.28769126     0.02500
C1260       C  0.83584356  0.60612169  0.29535536    -0.33400
H1261       H  0.80332141  0.60042401  0.27121531     0.13500
H1262       H  0.78935031  0.58057965  0.25633165     0.13400
H1263       H  0.82378846  0.54689084  0.26896061     0.13200
H1264       H  0.83777610  0.56674767  0.28385113     0.12300
C1265       C  0.81924637  0.41664973  0.27964473     0.18600
C1266       C  0.82752221  0.42739183  0.27078910    -0.10500
C1267       C  0.81966210  0.43878610  0.26242352    -0.11400
C1268       C  0.80348952  0.43948659  0.26287252     0.20200
C1269       C  0.79522572  0.42877376  0.27176782    -0.13400
C1270       C  0.80308188  0.41738806  0.28013401    -0.11700
C1271       C  0.79536049  0.45118858  0.25426240     0.01100
C1272       C  0.78840786  0.46099983  0.24719684    -0.31700
C1273       C  0.82730972  0.40483379  0.28815238     0.02500
C1274       C  0.83402840  0.39491086  0.29526787    -0.33400
H1275       H  0.84002332  0.42693762  0.27032952     0.13500
H1276       H  0.82617612  0.44702123  0.25560646     0.13400
H1277       H  0.78272415  0.42921430  0.27221744     0.13200
H1278       H  0.79656204  0.40915108  0.28694377     0.12300
C1279       C  0.70245323  0.58685223  0.15893792     0.18600
C1280       C  0.70063409  0.58495486  0.17492065    -0.10500
C1281       C  0.70893524  0.57349981  0.18273833    -0.11400
C1282       C  0.71910128  0.56386619  0.17462460     0.20200
C1283       C  0.72103259  0.56584142  0.15865551    -0.13400
C1284       C  0.71272659  0.57731157  0.15083000    -0.11700
C1285       C  0.72734517  0.55186511  0.18270167     0.01100
C1286       C  0.73395697  0.54185763  0.18982147    -0.31700
C1287       C  0.69347582  0.59829967  0.15083679     0.02500
C1288       C  0.68562151  0.60762808  0.14407894    -0.33400
H1289       H  0.69270876  0.59223640  0.18130858     0.13500
H1290       H  0.70734771  0.57208219  0.19508176     0.13400
H1291       H  0.72885548  0.55846069  0.15225574     0.13200
H1292       H  0.71420745  0.57864972  0.13846452     0.12300
C1293       C  0.71632418  0.44098616  0.17494727     0.18600
C1294       C  0.72375542  0.43152288  0.16412497    -0.10500
C1295       C  0.71540824  0.42016419  0.15623401    -0.11400
C1296       C  0.69960257  0.41822812  0.15913887     0.20200
C1297       C  0.69214317  0.42777980  0.16986827    -0.13400
C1298       C  0.70049078  0.43914043  0.17775776    -0.11700
C1299       C  0.69109270  0.40635158  0.15122805     0.01100
C1300       C  0.68400855  0.39635834  0.14461652    -0.31700
C1301       C  0.72496507  0.45244622  0.18330473     0.02500
C1302       C  0.73213640  0.46201778  0.19043157    -0.33400
H1303       H  0.73599418  0.43286317  0.16186445     0.13500
H1304       H  0.72128126  0.41284569  0.14795041     0.13400
H1305       H  0.67992179  0.42638614  0.17219053     0.13200
H1306       H  0.69463650  0.44640779  0.18610025     0.12300
C1307       C  0.64907848  0.34014607  0.00578428     0.18600
C1308       C  0.66268183  0.33643352  0.99780134    -0.10500
C1309       C  0.66280229  0.33618008  0.98160202    -0.11400
C1310       C  0.64931738  0.33963532  0.97330318     0.20200
C1311       C  0.63570151  0.34321700  0.98130037    -0.13400
C1312       C  0.63558153  0.34347100  0.99747537    -0.11700
C1313       C  0.64942770  0.33980235  0.95661845     0.01100
C1314       C  0.64904559  0.34032515  0.94266807    -0.31700
C1315       C  0.64895387  0.34076123  0.02245813     0.02500
C1316       C  0.64854774  0.34149102  0.03639786    -0.33400
H1317       H  0.67319538  0.33384038  0.00408538     0.13500
H1318       H  0.67340849  0.33340263  0.97556341     0.13400
H1319       H  0.62520616  0.34591784  0.97503011     0.13200
H1320       H  0.62499414  0.34635655  0.00349736     0.12300
C1321       C  0.17498591  0.27106712  0.55037010     0.18600
C1322       C  0.17028827  0.26381642  0.56407219    -0.10500
C1323       C  0.16255293  0.27226225  0.57548598    -0.11400
C1324       C  0.15949292  0.28799986  0.57324885     0.20200
C1325       C  0.16405110  0.29520399  0.55947488    -0.13400
C1326       C  0.17177973  0.28676013  0.54806386    -0.11700
C1327       C  0.15186057  0.29681717  0.58512320     0.01100
C1328       C  0.14548613  0.30439628  0.59492990    -0.31700
C1329       C  0.18317092  0.26244868  0.53873540     0.02500
C1330       C  0.19001221  0.25525839  0.52895198    -0.33400
H1331       H  0.17268345  0.25167999  0.56596197     0.13500
H1332       H  0.15906398  0.26656281  0.58607693     0.13400
H1333       H  0.16172609  0.30735701  0.55760805     0.13200
H1334       H  0.17532759  0.29247526  0.53749951     0.12300
C1335       C  0.17437019  0.27084746  0.42735348     0.18600
C1336       C  0.16148118  0.27984172  0.43118837    -0.10500
C1337       C  0.15392191  0.28842245  0.41976946    -0.11400
C1338       C  0.15922729  0.28804801  0.40447097     0.20200
C1339       C  0.17211263  0.27903468  0.40063173    -0.13400
C1340       C  0.17967147  0.27044672  0.41205444    -0.11700
C1341       C  0.15143769  0.29689738  0.39273996     0.01100
C1342       C  0.14480126  0.30432307  0.38299654    -0.31700
C1343       C  0.18220110  0.26213066  0.43913136     0.02500
C1344       C  0.18886174  0.25492061  0.44901024    -0.33400
H1345       H  0.15730399  0.28023724  0.44298946     0.13500
H1346       H  0.14396771  0.29534824  0.42286244     0.13400
H1347       H  0.17630713  0.27865848  0.38883728     0.13200
H1348       H  0.18963830  0.26353012  0.40897522     0.12300
C1349       C  0.57324020  0.28965298  0.81916275     0.18600
C1350       C  0.57610785  0.27428623  0.81498866    -0.10500
C1351       C  0.56471488  0.26570664  0.80740556    -0.11400
C1352       C  0.55042029  0.27246798  0.80397547     0.20200
C1353       C  0.54754385  0.28783110  0.80814363    -0.13400
C1354       C  0.55893918  0.29641307  0.81572327    -0.11700
C1355       C  0.53873953  0.26367262  0.79613064     0.01100
C1356       C  0.52892822  0.25636158  0.78950889    -0.31700
C1357       C  0.58491377  0.29843202  0.82708086     0.02500
C1358       C  0.59462886  0.30575774  0.83384522    -0.33400
H1359       H  0.58712179  0.26894842  0.81761107     0.13500
H1360       H  0.56704340  0.25383244  0.80421669     0.13400
H1361       H  0.53651889  0.29315680  0.80553325     0.13200
H1362       H  0.55660097  0.30828259  0.81891764     0.12300
C1363       C  0.40538644  0.28851580  0.82299354     0.18600
C1364       C  0.41956515  0.29548454  0.81946834    -0.10500
C1365       C  0.43095987  0.28712216  0.81164275    -0.11400
C1366       C  0.42820351  0.27177377  0.80732064     0.20200
C1367       C  0.41410242  0.26475184  0.81102641    -0.13400
C1368       C  0.40271539  0.27310780  0.81885263    -0.11700
C1369       C  0.43970688  0.26332025  0.79883824     0.01100
C1370       C  0.44926045  0.25624019  0.79159889    -0.31700
C1371       C  0.39347280  0.29721366  0.83061216     0.02500
C1372       C  0.38334194  0.30437333  0.83690678    -0.33400
H1373       H  0.42174720  0.30739175  0.82263699     0.13500
H1374       H  0.44183692  0.29264803  0.80883884     0.13400
H1375       H  0.41186601  0.25288640  0.80774063     0.13200
H1376       H  0.39179361  0.26761358  0.82154201     0.12300
C1377       C  0.27912950  0.16890048  0.57271488     0.18600
C1378       C  0.28024288  0.16410264  0.55728883    -0.10500
C1379       C  0.27187900  0.17178729  0.54579410    -0.11400
C1380       C  0.26237476  0.18428446  0.54969957     0.20200
C1381       C  0.26118362  0.18901335  0.56513852    -0.13400
C1382       C  0.26954941  0.18133422  0.57662995    -0.11700
C1383       C  0.25392280  0.19233063  0.53788447     0.01100
C1384       C  0.24678359  0.19921200  0.52811054    -0.31700
C1385       C  0.28791556  0.16116206  0.58449156     0.02500
C1386       C  0.29532934  0.15466882  0.59431581    -0.33400
H1387       H  0.28761719  0.15449130  0.55415108     0.13500
H1388       H  0.27286606  0.16804087  0.53388489     0.13400
H1389       H  0.25384933  0.19865807  0.56826909     0.13200
H1390       H  0.26860629  0.18512341  0.58852905     0.12300
C1391       C  0.42624368  0.18553840  0.71944269     0.18600
C1392       C  0.43012402  0.17301266  0.70998358    -0.10500
C1393       C  0.41869064  0.16556902  0.70136523    -0.11400
C1394       C  0.40334594  0.17063071  0.70217979     0.20200
C1395       C  0.39945342  0.18316348  0.71164948    -0.13400
C1396       C  0.41089888  0.19061259  0.72028022    -0.11700
C1397       C  0.39164563  0.16288803  0.69332268     0.01100
C1398       C  0.38212350  0.15610679  0.68578777    -0.31700
C1399       C  0.43805425  0.19326682  0.72812918     0.02500
C1400       C  0.44805704  0.19981974  0.73521819    -0.33400
H1401       H  0.44197118  0.16903611  0.70925109     0.13500
H1402       H  0.42180417  0.15588432  0.69407534     0.13400
H1403       H  0.38761132  0.18715524  0.71235409     0.13200
H1404       H  0.40780825  0.20031505  0.72755867     0.12300
C1405       C  0.26279819  0.81378479  0.55038001     0.18600
C1406       C  0.26627267  0.82941772  0.54806248    -0.10500
C1407       C  0.27408954  0.83773013  0.55950066    -0.11400
C1408       C  0.27844499  0.83042442  0.57328036     0.20200
C1409       C  0.27501706  0.81478146  0.57556863    -0.13400
C1410       C  0.26719935  0.80647507  0.56413833    -0.11700
C1411       C  0.28634251  0.83896141  0.58512096     0.01100
C1412       C  0.29296858  0.84592156  0.59517698    -0.31700
C1413       C  0.25471533  0.80524246  0.53866561     0.02500
C1414       C  0.24794654  0.79803766  0.52886769    -0.33400
H1415       H  0.26292403  0.83516276  0.53744850     0.13500
H1416       H  0.27669656  0.84982563  0.55762655     0.13400
H1417       H  0.27834468  0.80903438  0.58618822     0.13200
H1418       H  0.26456833  0.79438695  0.56602805     0.12300
C1419       C  0.32625885  0.01698943  0.65206221     0.18600
C1420       C  0.31841015  0.00907682  0.64032214    -0.10500
C1421       C  0.31828604  0.99293462  0.64014809    -0.11400
C1422       C  0.32600931  0.98464388  0.65171104     0.20200
C1423       C  0.33376046  0.99255297  0.66352488    -0.13400
C1424       C  0.33388427  0.00870369  0.66369932    -0.11700
C1425       C  0.32620199  0.96804606  0.65126523     0.01100
C1426       C  0.32651586  0.95415169  0.65062496    -0.31700
C1427       C  0.32681109  0.03358290  0.65192804     0.02500
C1428       C  0.32754294  0.04746772  0.65147241    -0.33400
H1429       H  0.31250903  0.01537753  0.63125020     0.13500
H1430       H  0.31227853  0.98692594  0.63095166     0.13400
H1431       H  0.33978831  0.98624714  0.67250904     0.13200
H1432       H  0.34001807  0.01471812  0.67280816     0.12300
C1433       C  0.54986115  0.18434649  0.71840385     0.18600
C1434       C  0.56506645  0.18987936  0.71893927    -0.10500
C1435       C  0.57676131  0.18227903  0.71077431    -0.11400
C1436       C  0.57331115  0.16909945  0.70203655     0.20200
C1437       C  0.55811199  0.16352971  0.70154143    -0.13400
C1438       C  0.54641098  0.17113668  0.70970583    -0.11700
C1439       C  0.58532496  0.16136255  0.69350924     0.01100
C1440       C  0.59529082  0.15485968  0.68625857    -0.31700
C1441       C  0.53784376  0.19227347  0.72674160     0.02500
C1442       C  0.52799217  0.19912567  0.73383349    -0.33400
H1443       H  0.56786565  0.20007664  0.72563475     0.13500
H1444       H  0.58846546  0.18669175  0.71124288     0.13400
H1445       H  0.55530875  0.15335018  0.69482170     0.13200
H1446       H  0.53469660  0.16675260  0.70921061     0.12300
C1447       C  0.65001246  0.01664267  0.64963023     0.18600
C1448       C  0.64464654  0.00840844  0.63676079    -0.10500
C1449       C  0.64444983  0.99225550  0.63699949    -0.11400
C1450       C  0.64961524  0.98426263  0.65010889     0.20200
C1451       C  0.65501550  0.99249720  0.66296291    -0.13400
C1452       C  0.65521220  0.00865208  0.66272415    -0.11700
C1453       C  0.64934902  0.96763726  0.65035608     0.01100
C1454       C  0.64905455  0.95371295  0.65032969    -0.31700
C1455       C  0.65000557  0.03326687  0.64946725     0.02500
C1456       C  0.64976078  0.04718818  0.64933675    -0.33400
H1457       H  0.64058032  0.01446718  0.62658176     0.13500
H1458       H  0.64025256  0.98600799  0.62699322     0.13400
H1459       H  0.65903867  0.98643895  0.67315795     0.13200
H1460       H  0.65936622  0.01490258  0.67274580     0.12300
C1461       C  0.81970014  0.29122719  0.40741008     0.18600
C1462       C  0.82267709  0.29425260  0.42304205    -0.10500
C1463       C  0.81495706  0.28590581  0.43452275    -0.11400
C1464       C  0.80424008  0.27450922  0.43039882     0.20200
C1465       C  0.80125644  0.27148242  0.41477523    -0.13400
C1466       C  0.80897530  0.27982791  0.40329600    -0.11700
C1467       C  0.79624921  0.26595592  0.44216126     0.01100
C1468       C  0.78934343  0.25872310  0.45183684    -0.31700
C1469       C  0.82765229  0.29981825  0.39561700     0.02500
C1470       C  0.83439123  0.30709933  0.38584727    -0.33400
H1471       H  0.83094853  0.30304757  0.42634032     0.13500
H1472       H  0.81732812  0.28833258  0.44658036     0.13400
H1473       H  0.79297305  0.26269351  0.41148314     0.13200
H1474       H  0.80658879  0.27740310  0.39124280     0.12300
C1475       C  0.80224462  0.27251886  0.55409340     0.18600
C1476       C  0.79548025  0.28552992  0.56093764    -0.10500
C1477       C  0.80331919  0.29355947  0.57257192    -0.11400
C1478       C  0.81795131  0.28860400  0.57741399     0.20200
C1479       C  0.82469605  0.27556657  0.57059941    -0.13400
C1480       C  0.81685735  0.26753832  0.55896484    -0.11700
C1481       C  0.82613398  0.29700887  0.58920054     0.01100
C1482       C  0.83315779  0.30418130  0.59885607    -0.31700
C1483       C  0.79423102  0.26433567  0.54204123     0.02500
C1484       C  0.78749986  0.25751134  0.53192657    -0.33400
H1485       H  0.78418729  0.28948109  0.55725397     0.13500
H1486       H  0.79800894  0.30364135  0.57774370     0.13400
H1487       H  0.83601663  0.27165168  0.57423725     0.13200
H1488       H  0.82219510  0.25749504  0.55374660     0.12300
C1489       C  0.69888989  0.17011163  0.57362050     0.18600
C1490       C  0.69901984  0.16452004  0.55842627    -0.10500
C1491       C  0.70760812  0.17215164  0.54707618    -0.11400
C1492       C  0.71608720  0.18538227  0.55090150     0.20200
C1493       C  0.71602697  0.19093162  0.56610766    -0.13400
C1494       C  0.70743562  0.18330322  0.57745617    -0.11700
C1495       C  0.72475214  0.19333182  0.53921593     0.01100
C1496       C  0.73202147  0.20015103  0.52951952    -0.31700
C1497       C  0.69000512  0.16231699  0.58527214     0.02500
C1498       C  0.68266591  0.15571727  0.59507587    -0.33400
H1499       H  0.69246478  0.15430990  0.55536025     0.13500
H1500       H  0.70760034  0.16778382  0.53533855     0.13400
H1501       H  0.72256667  0.20115742  0.56916305     0.13200
H1502       H  0.70742322  0.18769474  0.58918388     0.12300
C1503       C  0.70183068  0.17097807  0.40469935     0.18600
C1504       C  0.71491626  0.17966285  0.40079529    -0.10500
C1505       C  0.72306592  0.18759203  0.41227172    -0.11400
C1506       C  0.71815361  0.18685722  0.42768318     0.20200
C1507       C  0.70500105  0.17826539  0.43157207    -0.13400
C1508       C  0.69685001  0.17033785  0.42009577    -0.11700
C1509       C  0.72669031  0.19477834  0.43951885     0.01100
C1510       C  0.73383871  0.20134157  0.44950213    -0.31700
C1511       C  0.69357104  0.16265569  0.39294120     0.02500
C1512       C  0.68655383  0.15566218  0.38317072    -0.33400
H1513       H  0.71884556  0.18024354  0.38891737     0.13500
H1514       H  0.73321865  0.19421793  0.40915420     0.13400
H1515       H  0.70110919  0.17763697  0.44346114     0.13200
H1516       H  0.68673089  0.16366635  0.42322599     0.12300
C1517       C  0.57530071  0.83101316  0.27936805     0.18600
C1518       C  0.55989692  0.83145040  0.28433348    -0.10500
C1519       C  0.54849782  0.82353982  0.27604671    -0.11400
C1520       C  0.55246784  0.81516304  0.26277376     0.20200
C1521       C  0.56786326  0.81473779  0.25780452    -0.13400
C1522       C  0.57925756  0.82264929  0.26608520    -0.11700
C1523       C  0.54078087  0.80694260  0.25430349     0.01100
C1524       C  0.53100869  0.79997534  0.24724431    -0.31700
C1525       C  0.58705450  0.83908704  0.28790627     0.02500
C1526       C  0.59695722  0.84577420  0.29505472    -0.33400
H1527       H  0.55671468  0.83787881  0.29459433     0.13500
H1528       H  0.53662169  0.82393219  0.27998665     0.13400
H1529       H  0.57105012  0.80828112  0.24756220     0.13200
H1530       H  0.59113410  0.82223099  0.26215291     0.12300
C1531       C  0.65092860  0.01639754  0.33002591     0.18600
C1532       C  0.65394400  0.00828228  0.34370840    -0.10500
C1533       C  0.65425138  0.99214103  0.34363642    -0.11400
C1534       C  0.65154879  0.98404514  0.32988044     0.20200
C1535       C  0.64848086  0.99215659  0.31619845    -0.13400
C1536       C  0.64817339  0.00830960  0.31627033    -0.11700
C1537       C  0.65181630  0.96743360  0.32986563     0.01100
C1538       C  0.65181848  0.95351696  0.33009754    -0.31700
C1539       C  0.65062726  0.03300143  0.33015088     0.02500
C1540       C  0.65029711  0.04690658  0.33049055    -0.33400
H1541       H  0.65606009  0.01442702  0.35441124     0.13500
H1542       H  0.65659384  0.98598085  0.35428631     0.13400
H1543       H  0.64633435  0.98600530  0.30550622     0.13200
H1544       H  0.64580051  0.01447791  0.30563166     0.12300
C1545       C  0.40674795  0.29013969  0.16112471     0.18600
C1546       C  0.42240710  0.29364660  0.15903873    -0.10500
C1547       C  0.43370714  0.28488742  0.16653834    -0.11400
C1548       C  0.42937092  0.27260245  0.17613611     0.20200
C1549       C  0.41371199  0.26915534  0.17830772    -0.13400
C1550       C  0.40240922  0.27791752  0.17080806    -0.11700
C1551       C  0.44099504  0.26349339  0.18367020     0.01100
C1552       C  0.45083248  0.25593131  0.18994683    -0.31700
C1553       C  0.39515819  0.29893911  0.15315741     0.02500
C1554       C  0.38549904  0.30624998  0.14632808    -0.33400
H1555       H  0.42586785  0.30307720  0.15156656     0.13500
H1556       H  0.44579768  0.28763751  0.16480887     0.13400
H1557       H  0.41026167  0.25967621  0.18572430     0.13200
H1558       H  0.39032319  0.27512150  0.17248416     0.12300
C1559       C  0.57482108  0.29065408  0.16088176     0.18600
C1560       C  0.57900220  0.27860297  0.17083452    -0.10500
C1561       C  0.56758444  0.26999031  0.17830543    -0.11400
C1562       C  0.55197114  0.27341382  0.17583579     0.20200
C1563       C  0.54777836  0.28557578  0.16601894    -0.13400
C1564       C  0.55920218  0.29419251  0.15854299    -0.11700
C1565       C  0.54028827  0.26432999  0.18326868     0.01100
C1566       C  0.53060974  0.25662616  0.18959498    -0.31700
C1567       C  0.58654048  0.29919058  0.15284788     0.02500
C1568       C  0.59627974  0.30629754  0.14593440    -0.33400
H1569       H  0.59105582  0.27579496  0.17271023     0.13500
H1570       H  0.57091156  0.26061024  0.18590348     0.13400
H1571       H  0.53571688  0.28830850  0.16407044     0.13200
H1572       H  0.55587197  0.30350362  0.15086306     0.12300
C1573       C  0.57652801  0.17118233  0.27863469     0.18600
C1574       C  0.56122394  0.17084861  0.28389724    -0.10500
C1575       C  0.54966185  0.17851276  0.27561762    -0.11400
C1576       C  0.55337682  0.18653771  0.26205521     0.20200
C1577       C  0.56870391  0.18700755  0.25688089    -0.13400
C1578       C  0.58026580  0.17934179  0.26515900    -0.11700
C1579       C  0.54145624  0.19411138  0.25333037     0.01100
C1580       C  0.53151608  0.20040137  0.24588897    -0.31700
C1581       C  0.58832071  0.16295060  0.28693631     0.02500
C1582       C  0.59801996  0.15590479  0.29400108    -0.33400
H1583       H  0.55822287  0.16457445  0.29431261     0.13500
H1584       H  0.53783954  0.17809395  0.27971457     0.13400
H1585       H  0.57168347  0.19319684  0.24640826     0.13200
H1586       H  0.59206826  0.17967458  0.26100109     0.12300
C1587       C  0.27993381  0.17066740  0.40398536     0.18600
C1588       C  0.26474389  0.17537202  0.40094977    -0.10500
C1589       C  0.25634495  0.18334355  0.41221990    -0.11400
C1590       C  0.26310995  0.18663485  0.42656168     0.20200
C1591       C  0.27834914  0.18207102  0.42953788    -0.13400
C1592       C  0.28674764  0.17410407  0.41826919    -0.11700
C1593       C  0.25432939  0.19439806  0.43833136     0.01100
C1594       C  0.24691004  0.20069452  0.44828985    -0.31700
C1595       C  0.28848503  0.16223198  0.39250193     0.02500
C1596       C  0.29567832  0.15521742  0.38286509    -0.33400
H1597       H  0.25937704  0.17279497  0.38993127     0.13500
H1598       H  0.24456432  0.18682518  0.40980785     0.13400
H1599       H  0.28367932  0.18455928  0.44059532     0.13200
H1600       H  0.29849415  0.17054119  0.42072292     0.12300
C1601       C  0.40552805  0.17066792  0.27730554     0.18600
C1602       C  0.40437093  0.17240636  0.26124548    -0.10500
C1603       C  0.41620649  0.17972442  0.25304655    -0.11400
C1604       C  0.42921973  0.18529741  0.26089258     0.20200
C1605       C  0.43030536  0.18369673  0.27696160    -0.13400
C1606       C  0.41847286  0.17638967  0.28515729    -0.11700
C1607       C  0.44145590  0.19263650  0.25245909     0.01100
C1608       C  0.45155646  0.19896460  0.24530426    -0.31700
C1609       C  0.39362669  0.16274006  0.28572502     0.02500
C1610       C  0.38396365  0.15591534  0.29304193    -0.33400
H1611       H  0.39440252  0.16801549  0.25507422     0.13500
H1612       H  0.41526039  0.18096120  0.24061595     0.13400
H1613       H  0.44031549  0.18801128  0.28312203     0.13200
H1614       H  0.41946560  0.17509353  0.29757666     0.12300
C1615       C  0.26344405  0.81309732  0.42733853     0.18600
C1616       C  0.26812314  0.80537621  0.41389457    -0.10500
C1617       C  0.27600467  0.81339289  0.40227446    -0.11400
C1618       C  0.27921480  0.82915513  0.40406649     0.20200
C1619       C  0.27459561  0.83684059  0.41754077    -0.13400
C1620       C  0.26672606  0.82882943  0.42915268    -0.11700
C1621       C  0.28727542  0.83746919  0.39214534     0.01100
C1622       C  0.29419288  0.84456775  0.38236635    -0.31700
C1623       C  0.25517096  0.80493646  0.43921186     0.02500
C1624       C  0.24815675  0.79807876  0.44909735    -0.33400
H1625       H  0.26563876  0.79320435  0.41238603     0.13500
H1626       H  0.27955446  0.80733264  0.39190987     0.13400
H1627       H  0.27705029  0.84901697  0.41905017     0.13200
H1628       H  0.26316370  0.83489849  0.43950749     0.12300
C1629       C  0.40715381  0.83012297  0.28035015     0.18600
C1630       C  0.42256896  0.83498588  0.28119008    -0.10500
C1631       C  0.43394162  0.82730246  0.27268371    -0.11400
C1632       C  0.42992309  0.81474273  0.26331188     0.20200
C1633       C  0.41451900  0.80985637  0.26249158    -0.13400
C1634       C  0.40314639  0.81753938  0.27099817    -0.11700
C1635       C  0.44158421  0.80688347  0.25452505     0.01100
C1636       C  0.45131308  0.80020231  0.24717182    -0.31700
C1637       C  0.39545602  0.83808529  0.28902762     0.02500
C1638       C  0.38569685  0.84486057  0.29626453    -0.33400
H1639       H  0.42577809  0.84470820  0.28838939     0.13500
H1640       H  0.44583269  0.83115386  0.27338971     0.13400
H1641       H  0.41131301  0.80014480  0.25527362     0.13200
H1642       H  0.39125561  0.81369578  0.27027220     0.12300
C1643       C  0.33132539  0.01648867  0.32879278     0.18600
C1644       C  0.34464894  0.00862708  0.33355806    -0.10500
C1645       C  0.34483801  0.99248360  0.33389804    -0.11400
C1646       C  0.33170262  0.98412365  0.32948028     0.20200
C1647       C  0.31837586  0.99197657  0.32469645    -0.13400
C1648       C  0.31818681  0.00813190  0.32435606    -0.11700
C1649       C  0.33189528  0.96751483  0.32999010     0.01100
C1650       C  0.33222702  0.95361247  0.33060699    -0.31700
C1651       C  0.33114652  0.03310872  0.32856234     0.02500
C1652       C  0.33122042  0.04703203  0.32861547    -0.33400
H1653       H  0.35486582  0.01497221  0.33702862     0.13500
H1654       H  0.35519622  0.98652824  0.33763299     0.13400
H1655       H  0.30814796  0.98562379  0.32127352     0.13200
H1656       H  0.30781705  0.01409449  0.32066805     0.12300
C1657       C  0.70154310  0.83017635  0.40640520     0.18600
C1658       C  0.70911347  0.81627812  0.40302187    -0.10500
C1659       C  0.71731029  0.80850169  0.41459052    -0.11400
C1660       C  0.71795874  0.81459244  0.42958438     0.20200
C1661       C  0.71037616  0.82847809  0.43296596    -0.13400
C1662       C  0.70218837  0.83625438  0.42140154    -0.11700
C1663       C  0.72655800  0.80672599  0.44144426     0.01100
C1664       C  0.73396273  0.80030116  0.45134828    -0.31700
C1665       C  0.69304693  0.83816712  0.39454742     0.02500
C1666       C  0.68578450  0.84493980  0.38477595    -0.33400
H1667       H  0.70868069  0.81147079  0.39146721     0.13500
H1668       H  0.72315998  0.79778543  0.41184688     0.13400
H1669       H  0.71082555  0.83329832  0.44451516     0.13200
H1670       H  0.69636827  0.84698612  0.42414599     0.12300
C1671       C  0.82060010  0.71218626  0.57623153     0.18600
C1672       C  0.81862036  0.72815091  0.57798093    -0.10500
C1673       C  0.81105442  0.73667501  0.56651383    -0.11400
C1674       C  0.80545211  0.72927147  0.55324664     0.20200
C1675       C  0.80735480  0.71329497  0.55153667    -0.13400
C1676       C  0.81491487  0.70477035  0.56300514    -0.11700
C1677       C  0.79789521  0.73808124  0.54133836     0.01100
C1678       C  0.79159724  0.74549551  0.53135901    -0.31700
C1679       C  0.82854940  0.70343177  0.58792956     0.02500
C1680       C  0.83527465  0.69600694  0.59761235    -0.33400
H1681       H  0.82296605  0.73400108  0.58816256     0.13500
H1682       H  0.80963572  0.74902353  0.56795208     0.13400
H1683       H  0.80306484  0.70745694  0.54132365     0.13200
H1684       H  0.81637936  0.69243097  0.56153711     0.12300
C1685       C  0.70249909  0.83099866  0.57603631     0.18600
C1686       C  0.71855469  0.83288416  0.57525369    -0.10500
C1687       C  0.72702777  0.82530771  0.56377588    -0.11400
C1688       C  0.71946503  0.81583690  0.55304735     0.20200
C1689       C  0.70342097  0.81390089  0.55387185    -0.13400
C1690       C  0.69495049  0.82147019  0.56534986    -0.11700
C1691       C  0.72814507  0.80813978  0.54117849     0.01100
C1692       C  0.73539782  0.80162586  0.53124786    -0.31700
C1693       C  0.69374046  0.83895078  0.58768348     0.02500
C1694       C  0.68625043  0.84566813  0.59729174    -0.33400
H1695       H  0.72449500  0.84023418  0.58346437     0.13500
H1696       H  0.73943741  0.82686117  0.56323626     0.13400
H1697       H  0.69747380  0.80659089  0.54562970     0.13200
H1698       H  0.68253598  0.81994533  0.56585898     0.12300
C1699       C  0.82027157  0.71211594  0.40615995     0.18600
C1700       C  0.82225457  0.72815328  0.40707937    -0.10500
C1701       C  0.81465455  0.73660127  0.41857949    -0.11400
C1702       C  0.80505803  0.72904758  0.42921588     0.20200
C1703       C  0.80300059  0.71302942  0.42823360    -0.13400
C1704       C  0.81059233  0.70458516  0.41673446    -0.11700
C1705       C  0.79745848  0.73770323  0.44120991     0.01100
C1706       C  0.79113647  0.74503317  0.45123352    -0.31700
C1707       C  0.82827359  0.70333818  0.39451153     0.02500
C1708       C  0.83501059  0.69574581  0.38496741    -0.33400
H1709       H  0.82971162  0.73409960  0.39896812     0.13500
H1710       H  0.81631875  0.74898612  0.41923045     0.13400
H1711       H  0.79560571  0.70707131  0.43639351     0.13200
H1712       H  0.80897768  0.69219167  0.41613299     0.12300
C1713       C  0.42597884  0.72875717  0.80274352     0.18600
C1714       C  0.43021123  0.71838582  0.81442899    -0.10500
C1715       C  0.41885603  0.71017192  0.82245942    -0.11400
C1716       C  0.40322311  0.71229634  0.81883961     0.20200
C1717       C  0.39897372  0.72277934  0.80725001    -0.13400
C1718       C  0.41033775  0.73099885  0.79921297    -0.11700
C1719       C  0.39161450  0.70353507  0.82687921     0.01100
C1720       C  0.38216595  0.69592529  0.83370886    -0.31700
C1721       C  0.43770099  0.73687242  0.79421690     0.02500
C1722       C  0.44760888  0.74348694  0.78700491    -0.33400
H1723       H  0.44227467  0.71657039  0.81724268     0.13500
H1724       H  0.42226240  0.70209493  0.83140169     0.13400
H1725       H  0.38691623  0.72450758  0.80436221     0.13200
H1726       H  0.40695043  0.73899341  0.79018901     0.12300
C1727       C  0.57455008  0.82982600  0.70129937     0.18600
C1728       C  0.55910665  0.83383705  0.69856502    -0.10500
C1729       C  0.54724512  0.82630726  0.70653970    -0.11400
C1730       C  0.55078079  0.81473125  0.71728403     0.20200
C1731       C  0.56622479  0.81074090  0.72006013    -0.13400
C1732       C  0.57809380  0.81827580  0.71208137    -0.11700
C1733       C  0.53857648  0.80679792  0.72529217     0.01100
C1734       C  0.52847647  0.79987082  0.73192068    -0.31700
C1735       C  0.58669053  0.83757514  0.69299635     0.02500
C1736       C  0.59651356  0.84433404  0.68580026    -0.33400
H1737       H  0.55624311  0.84275330  0.69025382     0.13500
H1738       H  0.53534058  0.82946190  0.70429357     0.13400
H1739       H  0.56907315  0.80178275  0.72833297     0.13200
H1740       H  0.58999511  0.81508442  0.71428608     0.12300
C1741       C  0.57151396  0.70963454  0.81811043     0.18600
C1742       C  0.57175200  0.71038470  0.80193609    -0.10500
C1743       C  0.56038526  0.71872316  0.79404953    -0.11400
C1744       C  0.54873735  0.72633658  0.80230913     0.20200
C1745       C  0.54845464  0.72553539  0.81848340    -0.13400
C1746       C  0.55982938  0.71719830  0.82637406    -0.11700
C1747       C  0.53714102  0.73501315  0.79417987     0.01100
C1748       C  0.52748621  0.74226018  0.78724186    -0.31700
C1749       C  0.58329227  0.70116636  0.82620482     0.02500
C1750       C  0.59318465  0.69407497  0.83295630    -0.33400
H1751       H  0.58073392  0.70456955  0.79544156     0.13500
H1752       H  0.56069863  0.71927145  0.78153929     0.13400
H1753       H  0.53948573  0.73137666  0.82497296     0.13200
H1754       H  0.55953973  0.71668014  0.83888604     0.12300
C1755       C  0.40430737  0.83182697  0.69928957     0.18600
C1756       C  0.41943244  0.83757449  0.69993684    -0.10500
C1757       C  0.43084313  0.82943998  0.70800293    -0.11400
C1758       C  0.42715557  0.81554019  0.71544174     0.20200
C1759       C  0.41202496  0.80984082  0.71484359    -0.13400
C1760       C  0.40062726  0.81796523  0.70678480    -0.11700
C1761       C  0.43886564  0.80705907  0.72362219     0.01100
C1762       C  0.44856040  0.79979902  0.73049434    -0.31700
C1763       C  0.39257057  0.84003176  0.69084868     0.02500
C1764       C  0.38259893  0.84667502  0.68375194    -0.33400
H1765       H  0.42240183  0.84828374  0.69417665     0.13500
H1766       H  0.44251629  0.83394497  0.70840207     0.13400
H1767       H  0.40905931  0.79910726  0.72056206     0.13200
H1768       H  0.38897202  0.81342068  0.70635297     0.12300
C1769       C  0.70056835  0.58498275  0.82000021     0.18600
C1770       C  0.70216298  0.57042713  0.82690692    -0.10500
C1771       C  0.71088486  0.55892575  0.81963985    -0.11400
C1772       C  0.71806238  0.56192750  0.80543441     0.20200
C1773       C  0.71645710  0.57647966  0.79851884    -0.13400
C1774       C  0.70772894  0.58798159  0.80578406    -0.11700
C1775       C  0.72703515  0.55008954  0.79794607     0.01100
C1776       C  0.73450164  0.54021083  0.79154855    -0.31700
C1777       C  0.69163434  0.59682065  0.82753030     0.02500
C1778       C  0.68416019  0.60662772  0.83400942    -0.33400
H1779       H  0.69667836  0.56797946  0.83789661     0.13500
H1780       H  0.71203551  0.54771524  0.82508656     0.13400
H1781       H  0.72195078  0.57892637  0.78753353     0.13200
H1782       H  0.70657704  0.59919199  0.80033724     0.12300
C1783       C  0.82196399  0.41641982  0.70225758     0.18600
C1784       C  0.81975204  0.43123487  0.69612293    -0.10500
C1785       C  0.81204292  0.44250281  0.70476431    -0.11400
C1786       C  0.80650638  0.43901056  0.71957862     0.20200
C1787       C  0.80869187  0.42418758  0.72570969    -0.13400
C1788       C  0.81640672  0.41291579  0.71706642    -0.11700
C1789       C  0.79854400  0.45062174  0.72842578     0.01100
C1790       C  0.79178665  0.46041760  0.73567277    -0.31700
C1791       C  0.82995676  0.40485032  0.69337724     0.02500
C1792       C  0.83665976  0.39519877  0.68589882    -0.33400
H1793       H  0.82399360  0.43407174  0.68468531     0.13500
H1794       H  0.81040102  0.45392144  0.69990745     0.13400
H1795       H  0.80444027  0.42135613  0.73714538     0.13200
H1796       H  0.81804651  0.40149681  0.72192149     0.12300
C1797       C  0.70011133  0.41589077  0.81934914     0.18600
C1798       C  0.69319605  0.42981935  0.81486362    -0.10500
C1799       C  0.70197361  0.44119181  0.80747058    -0.11400
C1800       C  0.71768962  0.43867133  0.80454069     0.20200
C1801       C  0.72459454  0.42472836  0.80898065    -0.13400
C1802       C  0.71581976  0.41335937  0.81637667    -0.11700
C1803       C  0.72672367  0.45040278  0.79703037     0.01100
C1804       C  0.73424235  0.46027299  0.79072341    -0.31700
C1805       C  0.69115754  0.40425557  0.82712906     0.02500
C1806       C  0.68382977  0.39448301  0.83380787    -0.33400
H1807       H  0.68106063  0.43189645  0.81711984     0.13500
H1808       H  0.69653358  0.45194158  0.80407781     0.13400
H1809       H  0.73674081  0.42267085  0.80675881     0.13200
H1810       H  0.72127760  0.40263272  0.81981026     0.12300
C1811       C  0.82202993  0.58481304  0.70350520     0.18600
C1812       C  0.83010113  0.57193993  0.70910179    -0.10500
C1813       C  0.82231653  0.56052469  0.71749633    -0.11400
C1814       C  0.80643856  0.56194621  0.72032068     0.20200
C1815       C  0.79840437  0.57487527  0.71483096    -0.13400
C1816       C  0.80618178  0.58628008  0.70643878    -0.11700
C1817       C  0.79834644  0.55010230  0.72871221     0.01100
C1818       C  0.79144909  0.54022850  0.73570732    -0.31700
C1819       C  0.82991366  0.59639946  0.69455549     0.02500
C1820       C  0.83637236  0.60606151  0.68687781    -0.33400
H1821       H  0.84235880  0.57068714  0.70689595     0.13500
H1822       H  0.82863884  0.55057276  0.72169872     0.13400
H1823       H  0.78612973  0.57609090  0.71696258     0.13200
H1824       H  0.79983152  0.59618196  0.70216279     0.12300
loop_ 
_geom_bond_atom_site_label_1 
_geom_bond_atom_site_label_2 
_geom_bond_distance 
_geom_bond_site_symmetry_2 
_ccdc_geom_bond_type 
N1            C6   1.353       .  A
N1            C5   1.353       .  A
N1           H33   1.038       .  S
N2            C9   1.352       .  A
N2           C10   1.351       .  A
N3            C8   1.354       .  A
N3            C7   1.353       .  A
N3           H34   1.038       .  S
N4           C11   1.351       .  A
N4           C12   1.352       .  A
C5           C13   1.387       .  A
C5           C21   1.414       .  A
C6           C22   1.414       .  A
C6           C14   1.388       .  A
C7           C15   1.388       .  A
C7           C24   1.414       .  A
C8           C23   1.414       .  A
C8           C16   1.388       .  A
C9           C21   1.411       .  A
C9           C17   1.387       .  A
C10          C24   1.412       .  A
C10          C18   1.387       .  A
C11          C19   1.387       .  A
C11          C22   1.413       .  A
C12          C20   1.387       .  A
C12          C23   1.412       .  A
C13          C14   1.376       .  A
C13          H25   1.082       .  S
C14          H26   1.082       .  S
C15          C16   1.375       .  A
C15          H27   1.082       .  S
C16          H28   1.082       .  S
C17          C18   1.372       .  A
C17          H29   1.082       .  S
C18          H30   1.082       .  S
C19          C20   1.372       .  A
C19          H31   1.082       .  S
C20          H32   1.082       .  S
C21        C1790   1.450       .  S
C22        C1818   1.449       .  S
C23        C1776   1.451       .  S
C24        C1804   1.448       .  S
N35          C40   1.353       .  A
N35          C39   1.354       .  A
N35          H67   1.033       .  S
N36          C43   1.352       .  A
N36          C44   1.352       .  A
N37          C42   1.354       .  A
N37          C41   1.353       .  A
N37          H68   1.034       .  S
N38          C45   1.351       .  A
N38          C46   1.351       .  A
C39          C47   1.388       .  A
C39          C55   1.415       .  A
C40          C56   1.415       .  A
C40          C48   1.388       .  A
C41          C49   1.387       .  A
C41          C58   1.414       .  A
C42          C57   1.415       .  A
C42          C50   1.388       .  A
C43          C55   1.413       .  A
C43          C51   1.387       .  A
C44          C58   1.413       .  A
C44          C52   1.387       .  A
C45          C53   1.387       .  A
C45          C56   1.413       .  A
C46          C54   1.387       .  A
C46          C57   1.412       .  A
C47          C48   1.374       .  A
C47          H59   1.082       .  S
C48          H60   1.083       .  S
C49          C50   1.374       .  A
C49          H61   1.083       .  S
C50          H62   1.082       .  S
C51          C52   1.371       .  A
C51          H63   1.082       .  S
C52          H64   1.082       .  S
C53          C54   1.372       .  A
C53          H65   1.082       .  S
C54          H66   1.083       .  S
C55        C1734   1.449       .  S
C56        C1762   1.449       .  S
C57        C1722   1.449       .  S
C58        C1748   1.449       .  S
N69          C74   1.354       .  A
N69          C73   1.354       .  A
N69         H101   1.037       .  S
N70          C77   1.351       .  A
N70          C78   1.351       .  A
N71          C76   1.353       .  A
N71          C75   1.353       .  A
N71         H102   1.037       .  S
N72          C79   1.351       .  A
N72          C80   1.351       .  A
C73          C81   1.387       .  A
C73          C89   1.415       .  A
C74          C90   1.415       .  A
C74          C82   1.387       .  A
C75          C83   1.388       .  A
C75          C92   1.413       .  A
C76          C91   1.414       .  A
C76          C84   1.387       .  A
C77          C89   1.411       .  A
C77          C85   1.387       .  A
C78          C92   1.411       .  A
C78          C86   1.387       .  A
C79          C87   1.387       .  A
C79          C90   1.412       .  A
C80          C88   1.387       .  A
C80          C91   1.411       .  A
C81          C82   1.375       .  A
C81          H93   1.082       .  S
C82          H94   1.082       .  S
C83          C84   1.375       .  A
C83          H95   1.082       .  S
C84          H96   1.082       .  S
C85          C86   1.372       .  A
C85          H97   1.082       .  S
C86          H98   1.082       .  S
C87          C88   1.372       .  A
C87          H99   1.082       .  S
C88         H100   1.082       .  S
C89        C1678   1.450       .  S
C90        C1706   1.450       .  S
C91        C1664   1.450       .  S
C92        C1692   1.448       .  S
N103        C107   1.345       .  A
N103        N104   1.322       .  A
N103       Cu111   2.070       .  S
N104        C105   1.345       .  A
N104       Cu110   2.067       .  S
C105        C106   1.379       .  A
C105        H108   1.082       .  S
C106        C107   1.379       .  A
C106       C1638   1.434       .  S
C107        H109   1.082       .  S
Cu110       N113   2.067       .  S
Cu111       N121   2.071       .  S
Cu112       N114   2.075       .  S
Cu112       N120   2.075       .  S
N113        C117   1.344       .  A
N113        N114   1.323       .  A
N114        C115   1.346       .  A
C115        C116   1.380       .  A
C115        H118   1.082       .  S
C116        C117   1.377       .  A
C116       C1622   1.435       .  S
C117        H119   1.082       .  S
N120        C124   1.346       .  A
N120        N121   1.323       .  A
N121        C122   1.345       .  A
C122        C123   1.378       .  A
C122        H125   1.082       .  S
C123        C124   1.379       .  A
C123       C1650   1.436       .  S
C124        H126   1.082       .  S
N127        C131   1.345       .  A
N127        N128   1.323       .  A
N127       Cu135   2.071       .  S
N128        C129   1.345       .  A
N128       Cu134   2.068       .  S
C129        C130   1.378       .  A
C129        H132   1.082       .  S
C130        C131   1.379       .  A
C130       C1610   1.434       .  S
C131        H133   1.082       .  S
Cu134       N137   2.069       .  S
Cu135       N145   2.072       .  S
Cu136       N138   2.074       .  S
Cu136       N144   2.074       .  S
N137        C141   1.344       .  A
N137        N138   1.323       .  A
N138        C139   1.346       .  A
C139        C140   1.380       .  A
C139        H142   1.082       .  S
C140        C141   1.378       .  A
C140       C1596   1.435       .  S
C141        H143   1.082       .  S
N144        C148   1.345       .  A
N144        N145   1.323       .  A
N145        C146   1.345       .  A
C146        C147   1.379       .  A
C146        H149   1.082       .  S
C147        C148   1.379       .  A
C147       C1652   1.436       .  S
C148        H150   1.082       .  S
N151        C156   1.353       .  A
N151        C155   1.352       .  A
N151        H183   1.036       .  S
N152        C159   1.350       .  A
N152        C160   1.351       .  A
N153        C158   1.352       .  A
N153        C157   1.353       .  A
N153        H184   1.035       .  S
N154        C161   1.351       .  A
N154        C162   1.350       .  A
C155        C163   1.388       .  A
C155        C171   1.412       .  A
C156        C172   1.412       .  A
C156        C164   1.388       .  A
C157        C165   1.388       .  A
C157        C174   1.414       .  A
C158        C173   1.414       .  A
C158        C166   1.388       .  A
C159        C171   1.411       .  A
C159        C167   1.387       .  A
C160        C174   1.411       .  A
C160        C168   1.387       .  A
C161        C169   1.386       .  A
C161        C172   1.410       .  A
C162        C170   1.388       .  A
C162        C173   1.411       .  A
C163        C164   1.374       .  A
C163        H175   1.082       .  S
C164        H176   1.083       .  S
C165        C166   1.375       .  A
C165        H177   1.083       .  S
C166        H178   1.082       .  S
C167        C168   1.372       .  A
C167        H179   1.083       .  S
C168        H180   1.082       .  S
C169        C170   1.371       .  A
C169        H181   1.083       .  S
C170        H182   1.082       .  S
C171       C1566   1.445       .  S
C172       C1552   1.446       .  S
C173       C1608   1.446       .  S
C174       C1580   1.448       .  S
N185        C189   1.345       .  A
N185        N186   1.323       .  A
N185       Cu193   2.072       .  S
N186        C187   1.345       .  A
N186       Cu192   2.072       .  S
C187        C188   1.379       .  A
C187        H190   1.082       .  S
C188        C189   1.379       .  A
C188       C1526   1.436       .  S
C189        H191   1.082       .  S
Cu192       N195   2.072       .  S
Cu193       N203   2.072       .  S
Cu194       N196   2.073       .  S
Cu194       N202   2.072       .  S
N195        C199   1.345       .  A
N195        N196   1.323       .  A
N196        C197   1.345       .  A
C197        C198   1.379       .  A
C197        H200   1.082       .  S
C198        C199   1.379       .  A
C198       C1666   1.436       .  S
C199        H201   1.082       .  S
N202        C206   1.346       .  A
N202        N203   1.323       .  A
N203        C204   1.345       .  A
C204        C205   1.379       .  A
C204        H207   1.082       .  S
C205        C206   1.379       .  A
C205       C1538   1.436       .  S
C206        H208   1.082       .  S
N209        C213   1.345       .  A
N209        N210   1.323       .  A
N209       Cu217   2.072       .  S
N210        C211   1.344       .  A
N210       Cu216   2.066       .  S
C211        C212   1.377       .  A
C211        H214   1.082       .  S
C212        C213   1.380       .  A
C212       C1582   1.434       .  S
C213        H215   1.082       .  S
Cu216       N219   2.066       .  S
Cu217       N227   2.072       .  S
Cu218       N220   2.071       .  S
Cu218       N226   2.071       .  S
N219        C223   1.344       .  A
N219        N220   1.323       .  A
N220        C221   1.345       .  A
C221        C222   1.379       .  A
C221        H224   1.082       .  S
C222        C223   1.378       .  A
C222       C1512   1.434       .  S
C223        H225   1.082       .  S
N226        C230   1.345       .  A
N226        N227   1.323       .  A
N227        C228   1.345       .  A
C228        C229   1.378       .  A
C228        H231   1.082       .  S
C229        C230   1.379       .  A
C229       C1540   1.435       .  S
C230        H232   1.082       .  S
N233        C238   1.354       .  A
N233        C237   1.355       .  A
N233        H265   1.036       .  S
N234        C241   1.351       .  A
N234        C242   1.350       .  A
N235        C240   1.355       .  A
N235        C239   1.354       .  A
N235        H266   1.036       .  S
N236        C243   1.350       .  A
N236        C244   1.351       .  A
C237        C245   1.388       .  A
C237        C253   1.416       .  A
C238        C254   1.416       .  A
C238        C246   1.388       .  A
C239        C247   1.388       .  A
C239        C256   1.417       .  A
C240        C255   1.417       .  A
C240        C248   1.388       .  A
C241        C253   1.413       .  A
C241        C249   1.387       .  A
C242        C256   1.414       .  A
C242        C250   1.388       .  A
C243        C251   1.388       .  A
C243        C254   1.413       .  A
C244        C252   1.387       .  A
C244        C255   1.413       .  A
C245        C246   1.372       .  A
C245        H257   1.082       .  S
C246        H258   1.082       .  S
C247        C248   1.373       .  A
C247        H259   1.082       .  S
C248        H260   1.082       .  S
C249        C250   1.371       .  A
C249        H261   1.083       .  S
C250        H262   1.082       .  S
C251        C252   1.371       .  A
C251        H263   1.082       .  S
C252        H264   1.082       .  S
C253       C1510   1.449       .  S
C254       C1496   1.447       .  S
C255       C1484   1.451       .  S
C256       C1468   1.448       .  S
N267        C271   1.345       .  A
N267        N268   1.323       .  A
N267       Cu275   2.076       .  S
N268        C269   1.345       .  A
N268       Cu274   2.069       .  S
C269        C270   1.379       .  A
C269        H272   1.082       .  S
C270        C271   1.380       .  A
C270       C1736   1.436       .  S
C271        H273   1.082       .  S
Cu274       N277   2.069       .  S
Cu275       N285   2.076       .  S
Cu276       N278   2.071       .  S
Cu276       N284   2.071       .  S
N277        C281   1.345       .  A
N277        N278   1.323       .  A
N278        C279   1.345       .  A
C279        C280   1.379       .  A
C279        H282   1.082       .  S
C280        C281   1.378       .  A
C280       C1694   1.434       .  S
C281        H283   1.082       .  S
N284        C288   1.345       .  A
N284        N285   1.323       .  A
N285        C286   1.346       .  A
C286        C287   1.380       .  A
C286        H289   1.082       .  S
C287        C288   1.379       .  A
C287       C1454   1.437       .  S
C288        H290   1.082       .  S
N291        C295   1.344       .  A
N291        N292   1.323       .  A
N291       Cu299   2.068       .  S
N292        C293   1.345       .  A
N292       Cu298   2.072       .  S
C293        C294   1.379       .  A
C293        H296   1.082       .  S
C294        C295   1.378       .  A
C294       C1498   1.433       .  S
C295        H297   1.082       .  S
Cu298       N301   2.073       .  S
Cu299       N309   2.068       .  S
Cu300       N302   2.075       .  S
Cu300       N308   2.075       .  S
N301        C305   1.346       .  A
N301        N302   1.323       .  A
N302        C303   1.345       .  A
C303        C304   1.379       .  A
C303        H306   1.082       .  S
C304        C305   1.380       .  A
C304       C1440   1.437       .  S
C305        H307   1.082       .  S
N308        C312   1.345       .  A
N308        N309   1.323       .  A
N309        C310   1.345       .  A
C310        C311   1.379       .  A
C310        H313   1.082       .  S
C311        C312   1.380       .  A
C311       C1456   1.436       .  S
C312        H314   1.082       .  S
N315        C319   1.345       .  A
N315        N316   1.322       .  A
N315       Cu323   2.070       .  S
N316        C317   1.345       .  A
N316       Cu322   2.070       .  S
C317        C318   1.380       .  A
C317        H320   1.082       .  S
C318        C319   1.379       .  A
C318       C1764   1.436       .  S
C319        H321   1.082       .  S
Cu322       N325   2.070       .  S
Cu323       N333   2.070       .  S
Cu324       N326   2.071       .  S
Cu324       N332   2.071       .  S
N325        C329   1.344       .  A
N325        N326   1.324       .  A
N326        C327   1.345       .  A
C327        C328   1.378       .  A
C327        H330   1.082       .  S
C328        C329   1.377       .  A
C328       C1412   1.433       .  S
C329        H331   1.082       .  S
N332        C336   1.345       .  A
N332        N333   1.323       .  A
N333        C334   1.344       .  A
C334        C335   1.378       .  A
C334        H337   1.082       .  S
C335        C336   1.379       .  A
C335       C1426   1.435       .  S
C336        H338   1.082       .  S
N339        C343   1.344       .  A
N339        N340   1.323       .  A
N339       Cu347   2.067       .  S
N340        C341   1.345       .  A
N340       Cu346   2.068       .  S
C341        C342   1.379       .  A
C341        H344   1.082       .  S
C342        C343   1.378       .  A
C342       C1386   1.434       .  S
C343        H345   1.082       .  S
Cu346       N349   2.068       .  S
Cu347       N357   2.067       .  S
Cu348       N350   2.073       .  S
Cu348       N356   2.073       .  S
N349        C353   1.344       .  A
N349        N350   1.323       .  A
N350        C351   1.345       .  A
C351        C352   1.379       .  A
C351        H354   1.082       .  S
C352        C353   1.378       .  A
C352       C1398   1.433       .  S
C353        H355   1.082       .  S
N356        C360   1.345       .  A
N356        N357   1.323       .  A
N357        C358   1.344       .  A
C358        C359   1.378       .  A
C358        H361   1.082       .  S
C359        C360   1.379       .  A
C359       C1428   1.435       .  S
C360        H362   1.082       .  S
N363        C368   1.352       .  A
N363        C367   1.354       .  A
N363        H395   1.036       .  S
N364        C371   1.352       .  A
N364        C372   1.351       .  A
N365        C370   1.353       .  A
N365        C369   1.352       .  A
N365        H396   1.037       .  S
N366        C373   1.350       .  A
N366        C374   1.351       .  A
C367        C375   1.387       .  A
C367        C383   1.415       .  A
C368        C384   1.415       .  A
C368        C376   1.388       .  A
C369        C377   1.388       .  A
C369        C386   1.414       .  A
C370        C385   1.413       .  A
C370        C378   1.387       .  A
C371        C383   1.413       .  A
C371        C379   1.387       .  A
C372        C386   1.412       .  A
C372        C380   1.387       .  A
C373        C381   1.388       .  A
C373        C384   1.412       .  A
C374        C382   1.387       .  A
C374        C385   1.411       .  A
C375        C376   1.375       .  A
C375        H387   1.082       .  S
C376        H388   1.082       .  S
C377        C378   1.374       .  A
C377        H389   1.082       .  S
C378        H390   1.083       .  S
C379        C380   1.372       .  A
C379        H391   1.082       .  S
C380        H392   1.082       .  S
C381        C382   1.372       .  A
C381        H393   1.082       .  S
C382        H394   1.083       .  S
C383       C1442   1.451       .  S
C384       C1400   1.446       .  S
C385       C1370   1.449       .  S
C386       C1356   1.447       .  S
N397        C402   1.352       .  A
N397        C401   1.353       .  A
N397        H429   1.038       .  S
N398        C405   1.351       .  A
N398        C406   1.350       .  A
N399        C404   1.353       .  A
N399        C403   1.353       .  A
N399        H430   1.037       .  S
N400        C407   1.351       .  A
N400        C408   1.351       .  A
C401        C409   1.388       .  A
C401        C417   1.413       .  A
C402        C418   1.413       .  A
C402        C410   1.388       .  A
C403        C411   1.388       .  A
C403        C420   1.414       .  A
C404        C419   1.414       .  A
C404        C412   1.388       .  A
C405        C417   1.410       .  A
C405        C413   1.387       .  A
C406        C420   1.411       .  A
C406        C414   1.387       .  A
C407        C415   1.387       .  A
C407        C418   1.412       .  A
C408        C416   1.387       .  A
C408        C419   1.412       .  A
C409        C410   1.375       .  A
C409        H421   1.082       .  S
C410        H422   1.082       .  S
C411        C412   1.375       .  A
C411        H423   1.082       .  S
C412        H424   1.082       .  S
C413        C414   1.372       .  A
C413        H425   1.082       .  S
C414        H426   1.082       .  S
C415        C416   1.373       .  A
C415        H427   1.082       .  S
C416        H428   1.082       .  S
C417       C1594   1.449       .  S
C418       C1384   1.448       .  S
C419       C1330   1.450       .  S
C420       C1344   1.448       .  S
N431        C435   1.345       .  A
N431        N432   1.323       .  A
N431       Cu439   2.077       .  S
N432        C433   1.345       .  A
N432       Cu438   2.069       .  S
C433        C434   1.378       .  A
C433        H436   1.082       .  S
C434        C435   1.379       .  A
C434       C1358   1.435       .  S
C435        H437   1.082       .  S
Cu438       N441   2.069       .  S
Cu439       N449   2.077       .  S
Cu440       N442   2.076       .  S
Cu440       N448   2.077       .  S
N441        C445   1.345       .  A
N441        N442   1.323       .  A
N442        C443   1.345       .  A
C443        C444   1.379       .  A
C443        H446   1.082       .  S
C444        C445   1.378       .  A
C444       C1806   1.435       .  S
C445        H447   1.082       .  S
N448        C452   1.346       .  A
N448        N449   1.323       .  A
N449        C450   1.346       .  A
C450        C451   1.380       .  A
C450        H453   1.082       .  S
C451        C452   1.381       .  A
C451       C1314   1.440       .  S
C452        H454   1.082       .  S
N455        C459   1.345       .  A
N455        N456   1.323       .  A
N455       Cu463   2.074       .  S
N456        C457   1.344       .  A
N456       Cu462   2.064       .  S
C457        C458   1.377       .  A
C457        H460   1.082       .  S
C458        C459   1.379       .  A
C458       C1568   1.432       .  S
C459        H461   1.082       .  S
Cu462       N465   2.065       .  S
Cu463       N473   2.074       .  S
Cu464       N466   2.078       .  S
Cu464       N472   2.079       .  S
N465        C469   1.345       .  A
N465        N466   1.323       .  A
N466        C467   1.345       .  A
C467        C468   1.379       .  A
C467        H470   1.082       .  S
C468        C469   1.378       .  A
C468       C1300   1.435       .  S
C469        H471   1.082       .  S
N472        C476   1.347       .  A
N472        N473   1.323       .  A
N473        C474   1.346       .  A
C474        C475   1.380       .  A
C474        H477   1.082       .  S
C475        C476   1.381       .  A
C475       C1316   1.440       .  S
C476        H478   1.082       .  S
N479        C484   1.353       .  A
N479        C483   1.354       .  A
N479        H511   1.036       .  S
N480        C487   1.352       .  A
N480        C488   1.351       .  A
N481        C486   1.354       .  A
N481        C485   1.354       .  A
N481        H512   1.037       .  S
N482        C489   1.351       .  A
N482        C490   1.352       .  A
C483        C491   1.387       .  A
C483        C499   1.415       .  A
C484        C500   1.415       .  A
C484        C492   1.388       .  A
C485        C493   1.388       .  A
C485        C502   1.415       .  A
C486        C501   1.415       .  A
C486        C494   1.387       .  A
C487        C499   1.413       .  A
C487        C495   1.387       .  A
C488        C502   1.412       .  A
C488        C496   1.387       .  A
C489        C497   1.387       .  A
C489        C500   1.413       .  A
C490        C498   1.387       .  A
C490        C501   1.413       .  A
C491        C492   1.375       .  A
C491        H503   1.082       .  S
C492        H504   1.082       .  S
C493        C494   1.375       .  A
C493        H505   1.082       .  S
C494        H506   1.082       .  S
C495        C496   1.372       .  A
C495        H507   1.082       .  S
C496        H508   1.082       .  S
C497        C498   1.373       .  A
C497        H509   1.082       .  S
C498        H510   1.082       .  S
C499       C1286   1.452       .  S
C500       C1302   1.449       .  S
C501       C1272   1.452       .  S
C502       C1258   1.450       .  S
N513        C517   1.345       .  A
N513        N514   1.323       .  A
N513       Cu521   2.075       .  S
N514        C515   1.345       .  A
N514       Cu520   2.073       .  S
C515        C516   1.379       .  A
C515        H518   1.082       .  S
C516        C517   1.379       .  A
C516       C1778   1.437       .  S
C517        H519   1.082       .  S
Cu520       N523   2.072       .  S
Cu521       N531   2.074       .  S
Cu522       N524   2.067       .  S
Cu522       N530   2.067       .  S
N523        C527   1.345       .  A
N523        N524   1.323       .  A
N524        C525   1.344       .  A
C525        C526   1.378       .  A
C525        H528   1.082       .  S
C526        C527   1.379       .  A
C526       C1750   1.435       .  S
C527        H529   1.082       .  S
N530        C534   1.345       .  A
N530        N531   1.323       .  A
N531        C532   1.345       .  A
C532        C533   1.380       .  A
C532        H535   1.082       .  S
C533        C534   1.378       .  A
C533       C1244   1.435       .  S
C534        H536   1.082       .  S
N537        C541   1.344       .  A
N537        N538   1.323       .  A
N537       Cu545   2.065       .  S
N538        C539   1.345       .  A
N538       Cu544   2.074       .  S
C539        C540   1.379       .  A
C539        H542   1.082       .  S
C540        C541   1.377       .  A
C540       C1230   1.433       .  S
C541        H543   1.082       .  S
Cu544       N547   2.074       .  S
Cu545       N555   2.065       .  S
Cu546       N548   2.076       .  S
Cu546       N554   2.075       .  S
N547        C551   1.346       .  A
N547        N548   1.323       .  A
N548        C549   1.345       .  A
C549        C550   1.379       .  A
C549        H552   1.082       .  S
C550        C551   1.380       .  A
C550       C1288   1.438       .  S
C551        H553   1.082       .  S
N554        C558   1.346       .  A
N554        N555   1.322       .  A
N555        C556   1.344       .  A
C556        C557   1.378       .  A
C556        H559   1.082       .  S
C557        C558   1.380       .  A
C557       C1246   1.435       .  S
C558        H560   1.082       .  S
N561        C565   1.345       .  A
N561        N562   1.323       .  A
N561       Cu569   2.074       .  S
N562        C563   1.345       .  A
N562       Cu568   2.069       .  S
C563        C564   1.379       .  A
C563        H566   1.082       .  S
C564        C565   1.379       .  A
C564       C1720   1.435       .  S
C565        H567   1.082       .  S
Cu568       N571   2.068       .  S
Cu569       N579   2.075       .  S
Cu570       N572   2.072       .  S
Cu570       N578   2.073       .  S
N571        C575   1.345       .  A
N571        N572   1.323       .  A
N572        C573   1.344       .  A
C573        C574   1.378       .  A
C573        H576   1.082       .  S
C574        C575   1.378       .  A
C574       C1202   1.433       .  S
C575        H577   1.082       .  S
N578        C582   1.346       .  A
N578        N579   1.323       .  A
N579        C580   1.346       .  A
C580        C581   1.380       .  A
C580        H583   1.082       .  S
C581        C582   1.380       .  A
C581       C1216   1.438       .  S
C582        H584   1.082       .  S
N585        C589   1.344       .  A
N585        N586   1.323       .  A
N585       Cu593   2.073       .  S
N586        C587   1.345       .  A
N586       Cu592   2.068       .  S
C587        C588   1.379       .  A
C587        H590   1.082       .  S
C588        C589   1.378       .  A
C588       C1190   1.434       .  S
C589        H591   1.082       .  S
Cu592       N595   2.067       .  S
Cu593       N603   2.073       .  S
Cu594       N596   2.070       .  S
Cu594       N602   2.071       .  S
N595        C599   1.344       .  A
N595        N596   1.323       .  A
N596        C597   1.345       .  A
C597        C598   1.378       .  A
C597        H600   1.082       .  S
C598        C599   1.378       .  A
C598       C1176   1.433       .  S
C599        H601   1.082       .  S
N602        C606   1.345       .  A
N602        N603   1.323       .  A
N603        C604   1.346       .  A
C604        C605   1.380       .  A
C604        H607   1.082       .  S
C605        C606   1.379       .  A
C605       C1218   1.437       .  S
C606        H608   1.082       .  S
N609        C614   1.353       .  A
N609        C613   1.352       .  A
N609        H641   1.037       .  S
N610        C617   1.351       .  A
N610        C618   1.351       .  A
N611        C616   1.352       .  A
N611        C615   1.353       .  A
N611        H642   1.037       .  S
N612        C619   1.351       .  A
N612        C620   1.350       .  A
C613        C621   1.388       .  A
C613        C629   1.413       .  A
C614        C630   1.414       .  A
C614        C622   1.388       .  A
C615        C623   1.387       .  A
C615        C632   1.413       .  A
C616        C631   1.413       .  A
C616        C624   1.388       .  A
C617        C629   1.412       .  A
C617        C625   1.387       .  A
C618        C632   1.411       .  A
C618        C626   1.387       .  A
C619        C627   1.387       .  A
C619        C630   1.411       .  A
C620        C628   1.387       .  A
C620        C631   1.411       .  A
C621        C622   1.374       .  A
C621        H633   1.082       .  S
C622        H634   1.082       .  S
C623        C624   1.375       .  A
C623        H635   1.082       .  S
C624        H636   1.082       .  S
C625        C626   1.371       .  A
C625        H637   1.082       .  S
C626        H638   1.082       .  S
C627        C628   1.372       .  A
C627        H639   1.082       .  S
C628        H640   1.082       .  S
C629       C1636   1.446       .  S
C630       C1524   1.449       .  S
C631       C1232   1.446       .  S
C632       C1188   1.448       .  S
N643        C647   1.344       .  A
N643        N644   1.322       .  A
N643       Cu651   2.066       .  S
N644        C645   1.345       .  A
N644       Cu650   2.069       .  S
C645        C646   1.379       .  A
C645        H648   1.082       .  S
C646        C647   1.378       .  A
C646       C1372   1.434       .  S
C647        H649   1.082       .  S
Cu650       N653   2.069       .  S
Cu651       N661   2.067       .  S
Cu652       N654   2.084       .  S
Cu652       N660   2.084       .  S
N653        C657   1.345       .  A
N653        N654   1.324       .  A
N654        C655   1.347       .  A
C655        C656   1.381       .  A
C655        H658   1.082       .  S
C656        C657   1.378       .  A
C656       C1146   1.437       .  S
C657        H659   1.082       .  S
N660        C664   1.347       .  A
N660        N661   1.323       .  A
N661        C662   1.345       .  A
C662        C663   1.378       .  A
C662        H665   1.082       .  S
C663        C664   1.382       .  A
C663       C1160   1.439       .  S
C664        H666   1.082       .  S
N667        C671   1.345       .  A
N667        N668   1.323       .  A
N667       Cu675   2.072       .  S
N668        C669   1.344       .  A
N668       Cu674   2.065       .  S
C669        C670   1.377       .  A
C669        H672   1.082       .  S
C670        C671   1.379       .  A
C670       C1554   1.433       .  S
C671        H673   1.082       .  S
Cu674       N677   2.066       .  S
Cu675       N685   2.072       .  S
Cu676       N678   2.073       .  S
Cu676       N684   2.074       .  S
N677        C681   1.345       .  A
N677        N678   1.323       .  A
N678        C679   1.345       .  A
C679        C680   1.379       .  A
C679        H682   1.082       .  S
C680        C681   1.378       .  A
C680       C1132   1.434       .  S
C681        H683   1.082       .  S
N684        C688   1.346       .  A
N684        N685   1.323       .  A
N685        C686   1.345       .  A
C686        C687   1.379       .  A
C686        H689   1.082       .  S
C687        C688   1.380       .  A
C687       C1162   1.437       .  S
C688        H690   1.082       .  S
N691        C695   1.345       .  A
N691        N692   1.323       .  A
N691       Cu699   2.071       .  S
N692        C693   1.345       .  A
N692       Cu698   2.072       .  S
C693        C694   1.379       .  A
C693        H696   1.082       .  S
C694        C695   1.379       .  A
C694       C1482   1.436       .  S
C695        H697   1.082       .  S
Cu698       N701   2.072       .  S
Cu699       N709   2.071       .  S
Cu700       N702   2.073       .  S
Cu700       N708   2.072       .  S
N701        C705   1.345       .  A
N701        N702   1.323       .  A
N702        C703   1.346       .  A
C703        C704   1.380       .  A
C703        H706   1.082       .  S
C704        C705   1.379       .  A
C704       C1792   1.437       .  S
C705        H707   1.082       .  S
N708        C712   1.345       .  A
N708        N709   1.323       .  A
N709        C710   1.345       .  A
C710        C711   1.379       .  A
C710        H713   1.082       .  S
C711        C712   1.378       .  A
C711       C1118   1.434       .  S
C712        H714   1.082       .  S
N715        C719   1.345       .  A
N715        N716   1.323       .  A
N715       Cu723   2.071       .  S
N716        C717   1.347       .  A
N716       Cu722   2.078       .  S
C717        C718   1.381       .  A
C717        H720   1.082       .  S
C718        C719   1.378       .  A
C718       C1328   1.438       .  S
C719        H721   1.082       .  S
Cu722       N725   2.078       .  S
Cu723       N733   2.071       .  S
Cu724       N726   2.068       .  S
Cu724       N732   2.068       .  S
N725        C729   1.346       .  A
N725        N726   1.323       .  A
N726        C727   1.345       .  A
C727        C728   1.378       .  A
C727        H730   1.082       .  S
C728        C729   1.380       .  A
C728       C1106   1.436       .  S
C729        H731   1.082       .  S
N732        C736   1.345       .  A
N732        N733   1.323       .  A
N733        C734   1.345       .  A
C734        C735   1.379       .  A
C734        H737   1.082       .  S
C735        C736   1.378       .  A
C735       C1120   1.434       .  S
C736        H738   1.082       .  S
N739        C744   1.352       .  A
N739        C743   1.353       .  A
N739        H771   1.038       .  S
N740        C747   1.350       .  A
N740        C748   1.350       .  A
N741        C746   1.352       .  A
N741        C745   1.352       .  A
N741        H772   1.038       .  S
N742        C749   1.350       .  A
N742        C750   1.351       .  A
C743        C751   1.387       .  A
C743        C759   1.413       .  A
C744        C760   1.412       .  A
C744        C752   1.388       .  A
C745        C753   1.387       .  A
C745        C762   1.411       .  A
C746        C761   1.411       .  A
C746        C754   1.388       .  A
C747        C759   1.410       .  A
C747        C755   1.387       .  A
C748        C762   1.410       .  A
C748        C756   1.387       .  A
C749        C757   1.387       .  A
C749        C760   1.411       .  A
C750        C758   1.387       .  A
C750        C761   1.410       .  A
C751        C752   1.375       .  A
C751        H763   1.082       .  S
C752        H764   1.082       .  S
C753        C754   1.375       .  A
C753        H765   1.082       .  S
C754        H766   1.082       .  S
C755        C756   1.373       .  A
C755        H767   1.082       .  S
C756        H768   1.082       .  S
C757        C758   1.374       .  A
C757        H769   1.083       .  S
C758        H770   1.082       .  S
C759       C1148   1.449       .  S
C760       C1204   1.446       .  S
C761       C1092   1.447       .  S
C762       C1104   1.447       .  S
N773        C777   1.345       .  A
N773        N774   1.324       .  A
N773       Cu781   2.073       .  S
N774        C775   1.346       .  A
N774       Cu780   2.076       .  S
C775        C776   1.379       .  A
C775        H778   1.082       .  S
C776        C777   1.378       .  A
C776       C1680   1.436       .  S
C777        H779   1.082       .  S
Cu780       N783   2.076       .  S
Cu781       N791   2.073       .  S
Cu782       N784   2.068       .  S
Cu782       N790   2.068       .  S
N783        C787   1.346       .  A
N783        N784   1.323       .  A
N784        C785   1.344       .  A
C785        C786   1.378       .  A
C785        H788   1.082       .  S
C786        C787   1.380       .  A
C786       C1820   1.436       .  S
C787        H789   1.082       .  S
N790        C794   1.345       .  A
N790        N791   1.322       .  A
N791        C792   1.346       .  A
C792        C793   1.380       .  A
C792        H795   1.082       .  S
C793        C794   1.379       .  A
C793       C1076   1.436       .  S
C794        H796   1.082       .  S
N797        C801   1.346       .  A
N797        N798   1.323       .  A
N797       Cu805   2.077       .  S
N798        C799   1.345       .  A
N798       Cu804   2.071       .  S
C799        C800   1.379       .  A
C799        H802   1.082       .  S
C800        C801   1.380       .  A
C800       C1062   1.436       .  S
C801        H803   1.082       .  S
Cu804       N807   2.070       .  S
Cu805       N815   2.077       .  S
Cu806       N808   2.069       .  S
Cu806       N814   2.069       .  S
N807        C811   1.345       .  A
N807        N808   1.323       .  A
N808        C809   1.345       .  A
C809        C810   1.378       .  A
C809        H812   1.082       .  S
C810        C811   1.379       .  A
C810       C1090   1.434       .  S
C811        H813   1.082       .  S
N814        C818   1.345       .  A
N814        N815   1.323       .  A
N815        C816   1.346       .  A
C816        C817   1.380       .  A
C816        H819   1.082       .  S
C817        C818   1.378       .  A
C817       C1078   1.437       .  S
C818        H820   1.082       .  S
N821        C826   1.353       .  A
N821        C825   1.353       .  A
N821        H853   1.036       .  S
N822        C829   1.351       .  A
N822        C830   1.352       .  A
N823        C828   1.353       .  A
N823        C827   1.354       .  A
N823        H854   1.037       .  S
N824        C831   1.351       .  A
N824        C832   1.351       .  A
C825        C833   1.388       .  A
C825        C841   1.413       .  A
C826        C842   1.414       .  A
C826        C834   1.388       .  A
C827        C835   1.387       .  A
C827        C844   1.414       .  A
C828        C843   1.414       .  A
C828        C836   1.388       .  A
C829        C841   1.412       .  A
C829        C837   1.387       .  A
C830        C844   1.411       .  A
C830        C838   1.387       .  A
C831        C839   1.387       .  A
C831        C842   1.411       .  A
C832        C840   1.387       .  A
C832        C843   1.411       .  A
C833        C834   1.376       .  A
C833        H845   1.083       .  S
C834        H846   1.083       .  S
C835        C836   1.376       .  A
C835        H847   1.082       .  S
C836        H848   1.082       .  S
C837        C838   1.373       .  A
C837        H849   1.082       .  S
C838        H850   1.082       .  S
C839        C840   1.373       .  A
C839        H851   1.083       .  S
C840        H852   1.082       .  S
C841       C1624   1.448       .  S
C842       C1414   1.448       .  S
C843       C1064   1.449       .  S
C844       C1048   1.451       .  S
N855        C859   1.345       .  A
N855        N856   1.323       .  A
N855       Cu863   2.069       .  S
N856        C857   1.346       .  A
N856       Cu862   2.079       .  S
C857        C858   1.380       .  A
C857        H860   1.082       .  S
C858        C859   1.378       .  A
C858       C1708   1.437       .  S
C859        H861   1.082       .  S
Cu862       N865   2.079       .  S
Cu863       N873   2.069       .  S
Cu864       N866   2.072       .  S
Cu864       N872   2.072       .  S
N865        C869   1.347       .  A
N865        N866   1.323       .  A
N866        C867   1.345       .  A
C867        C868   1.379       .  A
C867        H870   1.082       .  S
C868        C869   1.381       .  A
C868       C1260   1.438       .  S
C869        H871   1.082       .  S
N872        C876   1.345       .  A
N872        N873   1.323       .  A
N873        C874   1.345       .  A
C874        C875   1.379       .  A
C874        H877   1.082       .  S
C875        C876   1.379       .  A
C875       C1034   1.436       .  S
C876        H878   1.082       .  S
N879        C883   1.345       .  A
N879        N880   1.323       .  A
N879       Cu887   2.073       .  S
N880        C881   1.346       .  A
N880       Cu886   2.073       .  S
C881        C882   1.380       .  A
C881        H884   1.082       .  S
C882        C883   1.379       .  A
C882       C1050   1.437       .  S
C883        H885   1.082       .  S
Cu886       N889   2.073       .  S
Cu887       N897   2.072       .  S
Cu888       N890   2.075       .  S
Cu888       N896   2.075       .  S
N889        C893   1.345       .  A
N889        N890   1.323       .  A
N890        C891   1.346       .  A
C891        C892   1.380       .  A
C891        H894   1.082       .  S
C892        C893   1.379       .  A
C892       C1022   1.436       .  S
C893        H895   1.082       .  S
N896        C900   1.346       .  A
N896        N897   1.323       .  A
N897        C898   1.346       .  A
C898        C899   1.379       .  A
C898        H901   1.082       .  S
C899        C900   1.380       .  A
C899       C1036   1.437       .  S
C900        H902   1.082       .  S
N903        C907   1.345       .  A
N903        N904   1.323       .  A
N903       Cu911   2.076       .  S
N904        C905   1.345       .  A
N904       Cu910   2.071       .  S
C905        C906   1.379       .  A
C905        H908   1.082       .  S
C906        C907   1.379       .  A
C906       C1470   1.435       .  S
C907        H909   1.082       .  S
Cu910       N913   2.072       .  S
Cu911       N921   2.077       .  S
Cu912       N914   2.074       .  S
Cu912       N920   2.074       .  S
N913        C917   1.345       .  A
N913        N914   1.323       .  A
N914        C915   1.345       .  A
C915        C916   1.379       .  A
C915        H918   1.082       .  S
C916        C917   1.379       .  A
C916       C1274   1.437       .  S
C917        H919   1.082       .  S
N920        C924   1.346       .  A
N920        N921   1.323       .  A
N921        C922   1.346       .  A
C922        C923   1.380       .  A
C922        H925   1.082       .  S
C923        C924   1.380       .  A
C923       C1006   1.439       .  S
C924        H926   1.082       .  S
N927        C931   1.345       .  A
N927        N928   1.323       .  A
N927       Cu935   2.075       .  S
N928        C929   1.346       .  A
N928       Cu934   2.074       .  S
C929        C930   1.379       .  A
C929        H932   1.082       .  S
C930        C931   1.379       .  A
C930       C1342   1.436       .  S
C931        H933   1.082       .  S
Cu934       N937   2.074       .  S
Cu935       N945   2.076       .  S
Cu936       N938   2.077       .  S
Cu936       N944   2.077       .  S
N937        C941   1.346       .  A
N937        N938   1.323       .  A
N938        C939   1.346       .  A
C939        C940   1.380       .  A
C939        H942   1.082       .  S
C940        C941   1.380       .  A
C940        C994   1.438       .  S
C941        H943   1.082       .  S
N944        C948   1.346       .  A
N944        N945   1.323       .  A
N945        C946   1.346       .  A
C946        C947   1.380       .  A
C946        H949   1.082       .  S
C947        C948   1.380       .  A
C947       C1008   1.439       .  S
C948        H950   1.082       .  S
N951        C956   1.353       .  A
N951        C955   1.353       .  A
N951        H983   1.037       .  S
N952        C959   1.351       .  A
N952        C960   1.350       .  A
N953        C958   1.353       .  A
N953        C957   1.353       .  A
N953        H984   1.038       .  S
N954        C961   1.351       .  A
N954        C962   1.351       .  A
C955        C963   1.388       .  A
C955        C971   1.414       .  A
C956        C972   1.415       .  A
C956        C964   1.388       .  A
C957        C965   1.387       .  A
C957        C974   1.414       .  A
C958        C973   1.414       .  A
C958        C966   1.388       .  A
C959        C971   1.410       .  A
C959        C967   1.387       .  A
C960        C974   1.410       .  A
C960        C968   1.387       .  A
C961        C969   1.387       .  A
C961        C972   1.412       .  A
C962        C970   1.387       .  A
C962        C973   1.412       .  A
C963        C964   1.375       .  A
C963        H975   1.082       .  S
C964        H976   1.082       .  S
C965        C966   1.376       .  A
C965        H977   1.082       .  S
C966        H978   1.082       .  S
C967        C968   1.372       .  A
C967        H979   1.082       .  S
C968        H980   1.082       .  S
C969        C970   1.373       .  A
C969        H981   1.083       .  S
C970        H982   1.082       .  S
C971       C1174   1.447       .  S
C972       C1134   1.448       .  S
C973        C992   1.451       .  S
C974       C1020   1.449       .  S
C985        C986   1.402       .  A
C985        C990   1.401       .  A
C985        C993   1.441       .  S
C986        C987   1.399       .  A
C986        H995   1.083       .  S
C987        C988   1.401       .  A
C987        H996   1.083       .  S
C988        C989   1.402       .  A
C988        C991   1.441       .  S
C989        C990   1.400       .  A
C989        H997   1.084       .  S
C990        H998   1.083       .  S
C991        C992   1.207       .  T
C993        C994   1.207       .  T
C999       C1000   1.402   1_455  A
C999       C1004   1.402   1_455  A
C999       C1007   1.442       .  S
C1000      C1001   1.400       .  A
C1000      H1009   1.083   1_655  S
C1001      C1002   1.402       .  A
C1001      H1010   1.083       .  S
C1002      C1003   1.402       .  A
C1002      C1005   1.442       .  S
C1003      C1004   1.400       .  A
C1003      H1011   1.083       .  S
C1004      H1012   1.083   1_655  S
C1005      C1006   1.207       .  T
C1007      C1008   1.207       .  T
C1013      C1014   1.401       .  A
C1013      C1018   1.401       .  A
C1013      C1021   1.439       .  S
C1014      C1015   1.398       .  A
C1014      H1023   1.083       .  S
C1015      C1016   1.400       .  A
C1015      H1024   1.083       .  S
C1016      C1017   1.401       .  A
C1016      C1019   1.438       .  S
C1017      C1018   1.399       .  A
C1017      H1025   1.084       .  S
C1018      H1026   1.083       .  S
C1019      C1020   1.205       .  T
C1021      C1022   1.205       .  T
C1027      C1028   1.402   1_455  A
C1027      C1032   1.401   1_455  A
C1027      C1035   1.440       .  S
C1028      C1029   1.400       .  A
C1028      H1037   1.083   1_655  S
C1029      C1030   1.402       .  A
C1029      H1038   1.083       .  S
C1030      C1031   1.401       .  A
C1030      C1033   1.439       .  S
C1031      C1032   1.398       .  A
C1031      H1039   1.083       .  S
C1032      H1040   1.083   1_655  S
C1033      C1034   1.205       .  T
C1035      C1036   1.206       .  T
C1041      C1042   1.402       .  A
C1041      C1046   1.401       .  A
C1041      C1049   1.440       .  S
C1042      C1043   1.399       .  A
C1042      H1051   1.083       .  S
C1043      C1044   1.401       .  A
C1043      H1052   1.083       .  S
C1044      C1045   1.401       .  A
C1044      C1047   1.440       .  S
C1045      C1046   1.399       .  A
C1045      H1053   1.084       .  S
C1046      H1054   1.083       .  S
C1047      C1048   1.207       .  T
C1049      C1050   1.206       .  T
C1055      C1056   1.401       .  A
C1055      C1060   1.401       .  A
C1055      C1063   1.438       .  S
C1056      C1057   1.399       .  A
C1056      H1065   1.084       .  S
C1057      C1058   1.401       .  A
C1057      H1066   1.083       .  S
C1058      C1059   1.401       .  A
C1058      C1061   1.439       .  S
C1059      C1060   1.399       .  A
C1059      H1067   1.083       .  S
C1060      H1068   1.083       .  S
C1061      C1062   1.206       .  T
C1063      C1064   1.205       .  T
C1069      C1070   1.402   1_455  A
C1069      C1074   1.401   1_455  A
C1069      C1077   1.440       .  S
C1070      C1071   1.399       .  A
C1070      H1079   1.083   1_655  S
C1071      C1072   1.401       .  A
C1071      H1080   1.083       .  S
C1072      C1073   1.401       .  A
C1072      C1075   1.440       .  S
C1073      C1074   1.399       .  A
C1073      H1081   1.083       .  S
C1074      H1082   1.083   1_655  S
C1075      C1076   1.206       .  T
C1077      C1078   1.206       .  T
C1083      C1084   1.400       .  A
C1083      C1088   1.401       .  A
C1083      C1091   1.437       .  S
C1084      C1085   1.397       .  A
C1084      H1093   1.083       .  S
C1085      C1086   1.400       .  A
C1085      H1094   1.083       .  S
C1086      C1087   1.401       .  A
C1086      C1089   1.437       .  S
C1087      C1088   1.399       .  A
C1087      H1095   1.084       .  S
C1088      H1096   1.084       .  S
C1089      C1090   1.204       .  T
C1091      C1092   1.205       .  T
C1097      C1098   1.401       .  A
C1097      C1102   1.401       .  A
C1097      C1105   1.438       .  S
C1098      C1099   1.398       .  A
C1098      H1107   1.083       .  S
C1099      C1100   1.401       .  A
C1099      H1108   1.084       .  S
C1100      C1101   1.401       .  A
C1100      C1103   1.437       .  S
C1101      C1102   1.398       .  A
C1101      H1109   1.084       .  S
C1102      H1110   1.083       .  S
C1103      C1104   1.205       .  T
C1105      C1106   1.205       .  T
C1111      C1112   1.401   1_455  A
C1111      C1116   1.401   1_455  A
C1111      C1119   1.437       .  S
C1112      C1113   1.398       .  A
C1112      H1121   1.083   1_655  S
C1113      C1114   1.401       .  A
C1113      H1122   1.083       .  S
C1114      C1115   1.401       .  A
C1114      C1117   1.437       .  S
C1115      C1116   1.398       .  A
C1115      H1123   1.084       .  S
C1116      H1124   1.083   1_655  S
C1117      C1118   1.204       .  T
C1119      C1120   1.204       .  T
C1125      C1126   1.401       .  A
C1125      C1130   1.401       .  A
C1125      C1133   1.437       .  S
C1126      C1127   1.399       .  A
C1126      H1135   1.084       .  S
C1127      C1128   1.401       .  A
C1127      H1136   1.083       .  S
C1128      C1129   1.401       .  A
C1128      C1131   1.437       .  S
C1129      C1130   1.398       .  A
C1129      H1137   1.083       .  S
C1130      H1138   1.084       .  S
C1131      C1132   1.204       .  T
C1133      C1134   1.205       .  T
C1139      C1140   1.401       .  A
C1139      C1144   1.401       .  A
C1139      C1147   1.438       .  S
C1140      C1141   1.399       .  A
C1140      H1149   1.084       .  S
C1141      C1142   1.402       .  A
C1141      H1150   1.083       .  S
C1142      C1143   1.401       .  A
C1142      C1145   1.440       .  S
C1143      C1144   1.398       .  A
C1143      H1151   1.083       .  S
C1144      H1152   1.084       .  S
C1145      C1146   1.206       .  T
C1147      C1148   1.205       .  T
C1153      C1154   1.402   1_554  A
C1153      C1158   1.401   1_554  A
C1153      C1161   1.441       .  S
C1154      C1155   1.401       .  A
C1154      H1163   1.084   1_556  S
C1155      C1156   1.402       .  A
C1155      H1164   1.083       .  S
C1156      C1157   1.401       .  A
C1156      C1159   1.441       .  S
C1157      C1158   1.398       .  A
C1157      H1165   1.083       .  S
C1158      H1166   1.083   1_556  S
C1159      C1160   1.207       .  T
C1161      C1162   1.206       .  T
C1167      C1168   1.401       .  A
C1167      C1172   1.400       .  A
C1167      C1175   1.436       .  S
C1168      C1169   1.398       .  A
C1168      H1177   1.084       .  S
C1169      C1170   1.401       .  A
C1169      H1178   1.084       .  S
C1170      C1171   1.400       .  A
C1170      C1173   1.435       .  S
C1171      C1172   1.397       .  A
C1171      H1179   1.083       .  S
C1172      H1180   1.083       .  S
C1173      C1174   1.204       .  T
C1175      C1176   1.203       .  T
C1181      C1182   1.401       .  A
C1181      C1186   1.401       .  A
C1181      C1189   1.438       .  S
C1182      C1183   1.399       .  A
C1182      H1191   1.083       .  S
C1183      C1184   1.401       .  A
C1183      H1192   1.084       .  S
C1184      C1185   1.400       .  A
C1184      C1187   1.437       .  S
C1185      C1186   1.398       .  A
C1185      H1193   1.084       .  S
C1186      H1194   1.083       .  S
C1187      C1188   1.205       .  T
C1189      C1190   1.204       .  T
C1195      C1196   1.401       .  A
C1195      C1200   1.400       .  A
C1195      C1203   1.435       .  S
C1196      C1197   1.398       .  A
C1196      H1205   1.084       .  S
C1197      C1198   1.401       .  A
C1197      H1206   1.084       .  S
C1198      C1199   1.400       .  A
C1198      C1201   1.436       .  S
C1199      C1200   1.397       .  A
C1199      H1207   1.083       .  S
C1200      H1208   1.084       .  S
C1201      C1202   1.204       .  T
C1203      C1204   1.203       .  T
C1209      C1210   1.401   1_554  A
C1209      C1214   1.402   1_554  A
C1209      C1217   1.441       .  S
C1210      C1211   1.399       .  A
C1210      H1219   1.083   1_556  S
C1211      C1212   1.401       .  A
C1211      H1220   1.083       .  S
C1212      C1213   1.402       .  A
C1212      C1215   1.441       .  S
C1213      C1214   1.400       .  A
C1213      H1221   1.083       .  S
C1214      H1222   1.083   1_556  S
C1215      C1216   1.207       .  T
C1217      C1218   1.206       .  T
C1223      C1224   1.400       .  A
C1223      C1228   1.401       .  A
C1223      C1231   1.435       .  S
C1224      C1225   1.397       .  A
C1224      H1233   1.084       .  S
C1225      C1226   1.400       .  A
C1225      H1234   1.083       .  S
C1226      C1227   1.401       .  A
C1226      C1229   1.436       .  S
C1227      C1228   1.398       .  A
C1227      H1235   1.083       .  S
C1228      H1236   1.084       .  S
C1229      C1230   1.203       .  T
C1231      C1232   1.203       .  T
C1237      C1238   1.401   1_554  A
C1237      C1242   1.402   1_554  A
C1237      C1245   1.438       .  S
C1238      C1239   1.398       .  A
C1238      H1247   1.083   1_556  S
C1239      C1240   1.401       .  A
C1239      H1248   1.084       .  S
C1240      C1241   1.401       .  A
C1240      C1243   1.438       .  S
C1241      C1242   1.399       .  A
C1241      H1249   1.083       .  S
C1242      H1250   1.083   1_556  S
C1243      C1244   1.205       .  T
C1245      C1246   1.205       .  T
C1251      C1252   1.401       .  A
C1251      C1256   1.402       .  A
C1251      C1259   1.441       .  S
C1252      C1253   1.399       .  A
C1252      H1261   1.083       .  S
C1253      C1254   1.401       .  A
C1253      H1262   1.084       .  S
C1254      C1255   1.401       .  A
C1254      C1257   1.439       .  S
C1255      C1256   1.400       .  A
C1255      H1263   1.084       .  S
C1256      H1264   1.083       .  S
C1257      C1258   1.206       .  T
C1259      C1260   1.206       .  T
C1265      C1266   1.402       .  A
C1265      C1270   1.401       .  A
C1265      C1273   1.440       .  S
C1266      C1267   1.400       .  A
C1266      H1275   1.083       .  S
C1267      C1268   1.402       .  A
C1267      H1276   1.083       .  S
C1268      C1269   1.401       .  A
C1268      C1271   1.441       .  S
C1269      C1270   1.399       .  A
C1269      H1277   1.083       .  S
C1270      H1278   1.083       .  S
C1271      C1272   1.207       .  T
C1273      C1274   1.206       .  T
C1279      C1280   1.401       .  A
C1279      C1284   1.402       .  A
C1279      C1287   1.441       .  S
C1280      C1281   1.399       .  A
C1280      H1289   1.083       .  S
C1281      C1282   1.401       .  A
C1281      H1290   1.083       .  S
C1282      C1283   1.402       .  A
C1282      C1285   1.441       .  S
C1283      C1284   1.400       .  A
C1283      H1291   1.083       .  S
C1284      H1292   1.083       .  S
C1285      C1286   1.207       .  T
C1287      C1288   1.207       .  T
C1293      C1294   1.401       .  A
C1293      C1298   1.401       .  A
C1293      C1301   1.438       .  S
C1294      C1295   1.398       .  A
C1294      H1303   1.083       .  S
C1295      C1296   1.401       .  A
C1295      H1304   1.083       .  S
C1296      C1297   1.401       .  A
C1296      C1299   1.438       .  S
C1297      C1298   1.398       .  A
C1297      H1305   1.083       .  S
C1298      H1306   1.083       .  S
C1299      C1300   1.205       .  T
C1301      C1302   1.205       .  T
C1307      C1308   1.402   1_554  A
C1307      C1312   1.401   1_554  A
C1307      C1315   1.443       .  S
C1308      C1309   1.401       .  A
C1308      H1317   1.083   1_556  S
C1309      C1310   1.402       .  A
C1309      H1318   1.083       .  S
C1310      C1311   1.401       .  A
C1310      C1313   1.443       .  S
C1311      C1312   1.399       .  A
C1311      H1319   1.083       .  S
C1312      H1320   1.083   1_556  S
C1313      C1314   1.208       .  T
C1315      C1316   1.208       .  T
C1321      C1322   1.401       .  A
C1321      C1326   1.401       .  A
C1321      C1329   1.440       .  S
C1322      C1323   1.400       .  A
C1322      H1331   1.083       .  S
C1323      C1324   1.402       .  A
C1323      H1332   1.083       .  S
C1324      C1325   1.401       .  A
C1324      C1327   1.441       .  S
C1325      C1326   1.399       .  A
C1325      H1333   1.083       .  S
C1326      H1334   1.084       .  S
C1327      C1328   1.206       .  T
C1329      C1330   1.206       .  T
C1335      C1336   1.401       .  A
C1335      C1340   1.401       .  A
C1335      C1343   1.437       .  S
C1336      C1337   1.398       .  A
C1336      H1345   1.084       .  S
C1337      C1338   1.401       .  A
C1337      H1346   1.083       .  S
C1338      C1339   1.401       .  A
C1338      C1341   1.439       .  S
C1339      C1340   1.399       .  A
C1339      H1347   1.083       .  S
C1340      H1348   1.084       .  S
C1341      C1342   1.205       .  T
C1343      C1344   1.205       .  T
C1349      C1350   1.401       .  A
C1349      C1354   1.401       .  A
C1349      C1357   1.438       .  S
C1350      C1351   1.398       .  A
C1350      H1359   1.083       .  S
C1351      C1352   1.401       .  A
C1351      H1360   1.084       .  S
C1352      C1353   1.401       .  A
C1352      C1355   1.436       .  S
C1353      C1354   1.398       .  A
C1353      H1361   1.084       .  S
C1354      H1362   1.083       .  S
C1355      C1356   1.204       .  T
C1357      C1358   1.205       .  T
C1363      C1364   1.401       .  A
C1363      C1368   1.401       .  A
C1363      C1371   1.437       .  S
C1364      C1365   1.399       .  A
C1364      H1373   1.083       .  S
C1365      C1366   1.401       .  A
C1365      H1374   1.084       .  S
C1366      C1367   1.401       .  A
C1366      C1369   1.437       .  S
C1367      C1368   1.398       .  A
C1367      H1375   1.083       .  S
C1368      H1376   1.084       .  S
C1369      C1370   1.205       .  T
C1371      C1372   1.204       .  T
C1377      C1378   1.401       .  A
C1377      C1382   1.401       .  A
C1377      C1385   1.437       .  S
C1378      C1379   1.398       .  A
C1378      H1387   1.084       .  S
C1379      C1380   1.401       .  A
C1379      H1388   1.083       .  S
C1380      C1381   1.401       .  A
C1380      C1383   1.437       .  S
C1381      C1382   1.398       .  A
C1381      H1389   1.084       .  S
C1382      H1390   1.083       .  S
C1383      C1384   1.205       .  T
C1385      C1386   1.204       .  T
C1391      C1392   1.400       .  A
C1391      C1396   1.401       .  A
C1391      C1399   1.434       .  S
C1392      C1393   1.397       .  A
C1392      H1401   1.084       .  S
C1393      C1394   1.400       .  A
C1393      H1402   1.083       .  S
C1394      C1395   1.401       .  A
C1394      C1397   1.436       .  S
C1395      C1396   1.398       .  A
C1395      H1403   1.083       .  S
C1396      H1404   1.084       .  S
C1397      C1398   1.204       .  T
C1399      C1400   1.203       .  T
C1405      C1406   1.401       .  A
C1405      C1410   1.401       .  A
C1405      C1413   1.436       .  S
C1406      C1407   1.398       .  A
C1406      H1415   1.084       .  S
C1407      C1408   1.401       .  A
C1407      H1416   1.083       .  S
C1408      C1409   1.401       .  A
C1408      C1411   1.436       .  S
C1409      C1410   1.397       .  A
C1409      H1417   1.084       .  S
C1410      H1418   1.084       .  S
C1411      C1412   1.204       .  T
C1413      C1414   1.204       .  T
C1419      C1420   1.401       .  A
C1419      C1424   1.401       .  A
C1419      C1427   1.438       .  S
C1420      C1421   1.398   1_545  A
C1420      H1429   1.083       .  S
C1421      C1422   1.401       .  A
C1421      H1430   1.083       .  S
C1422      C1423   1.401       .  A
C1422      C1425   1.438       .  S
C1423      C1424   1.399   1_565  A
C1423      H1431   1.083       .  S
C1424      H1432   1.083       .  S
C1425      C1426   1.205       .  T
C1427      C1428   1.205       .  T
C1433      C1434   1.401       .  A
C1433      C1438   1.401       .  A
C1433      C1441   1.440       .  S
C1434      C1435   1.399       .  A
C1434      H1443   1.084       .  S
C1435      C1436   1.401       .  A
C1435      H1444   1.083       .  S
C1436      C1437   1.402       .  A
C1436      C1439   1.440       .  S
C1437      C1438   1.400       .  A
C1437      H1445   1.083       .  S
C1438      H1446   1.083       .  S
C1439      C1440   1.206       .  T
C1441      C1442   1.207       .  T
C1447      C1448   1.401       .  A
C1447      C1452   1.401       .  A
C1447      C1455   1.440       .  S
C1448      C1449   1.399   1_545  A
C1448      H1457   1.083       .  S
C1449      C1450   1.401       .  A
C1449      H1458   1.083       .  S
C1450      C1451   1.401       .  A
C1450      C1453   1.440       .  S
C1451      C1452   1.399   1_565  A
C1451      H1459   1.083       .  S
C1452      H1460   1.083       .  S
C1453      C1454   1.206       .  T
C1455      C1456   1.206       .  T
C1461      C1462   1.401       .  A
C1461      C1466   1.401       .  A
C1461      C1469   1.438       .  S
C1462      C1463   1.398       .  A
C1462      H1471   1.083       .  S
C1463      C1464   1.401       .  A
C1463      H1472   1.084       .  S
C1464      C1465   1.401       .  A
C1464      C1467   1.436       .  S
C1465      C1466   1.398       .  A
C1465      H1473   1.084       .  S
C1466      H1474   1.083       .  S
C1467      C1468   1.204       .  T
C1469      C1470   1.205       .  T
C1475      C1476   1.401       .  A
C1475      C1480   1.401       .  A
C1475      C1483   1.439       .  S
C1476      C1477   1.399       .  A
C1476      H1485   1.083       .  S
C1477      C1478   1.401       .  A
C1477      H1486   1.083       .  S
C1478      C1479   1.401       .  A
C1478      C1481   1.439       .  S
C1479      C1480   1.399       .  A
C1479      H1487   1.083       .  S
C1480      H1488   1.083       .  S
C1481      C1482   1.205       .  T
C1483      C1484   1.206       .  T
C1489      C1490   1.401       .  A
C1489      C1494   1.401       .  A
C1489      C1497   1.436       .  S
C1490      C1491   1.397       .  A
C1490      H1499   1.083       .  S
C1491      C1492   1.400       .  A
C1491      H1500   1.084       .  S
C1492      C1493   1.400       .  A
C1492      C1495   1.434       .  S
C1493      C1494   1.397       .  A
C1493      H1501   1.084       .  S
C1494      H1502   1.083       .  S
C1495      C1496   1.203       .  T
C1497      C1498   1.204       .  T
C1503      C1504   1.401       .  A
C1503      C1508   1.401       .  A
C1503      C1511   1.437       .  S
C1504      C1505   1.398       .  A
C1504      H1513   1.083       .  S
C1505      C1506   1.401       .  A
C1505      H1514   1.084       .  S
C1506      C1507   1.401       .  A
C1506      C1509   1.437       .  S
C1507      C1508   1.398       .  A
C1507      H1515   1.084       .  S
C1508      H1516   1.084       .  S
C1509      C1510   1.205       .  T
C1511      C1512   1.204       .  T
C1517      C1518   1.401       .  A
C1517      C1522   1.401       .  A
C1517      C1525   1.438       .  S
C1518      C1519   1.399       .  A
C1518      H1527   1.083       .  S
C1519      C1520   1.401       .  A
C1519      H1528   1.084       .  S
C1520      C1521   1.401       .  A
C1520      C1523   1.438       .  S
C1521      C1522   1.398       .  A
C1521      H1529   1.084       .  S
C1522      H1530   1.083       .  S
C1523      C1524   1.205       .  T
C1525      C1526   1.205       .  T
C1531      C1532   1.401       .  A
C1531      C1536   1.401       .  A
C1531      C1539   1.438       .  S
C1532      C1533   1.398   1_545  A
C1532      H1541   1.083       .  S
C1533      C1534   1.401       .  A
C1533      H1542   1.083       .  S
C1534      C1535   1.401       .  A
C1534      C1537   1.439       .  S
C1535      C1536   1.399   1_565  A
C1535      H1543   1.083       .  S
C1536      H1544   1.083       .  S
C1537      C1538   1.205       .  T
C1539      C1540   1.205       .  T
C1545      C1546   1.401       .  A
C1545      C1550   1.401       .  A
C1545      C1553   1.436       .  S
C1546      C1547   1.397       .  A
C1546      H1555   1.083       .  S
C1547      C1548   1.400       .  A
C1547      H1556   1.084       .  S
C1548      C1549   1.400       .  A
C1548      C1551   1.435       .  S
C1549      C1550   1.398       .  A
C1549      H1557   1.084       .  S
C1550      H1558   1.083       .  S
C1551      C1552   1.203       .  T
C1553      C1554   1.203       .  T
C1559      C1560   1.400       .  A
C1559      C1564   1.401       .  A
C1559      C1567   1.435       .  S
C1560      C1561   1.396       .  A
C1560      H1569   1.083       .  S
C1561      C1562   1.400       .  A
C1561      H1570   1.084       .  S
C1562      C1563   1.400       .  A
C1562      C1565   1.433       .  S
C1563      C1564   1.397       .  A
C1563      H1571   1.084       .  S
C1564      H1572   1.084       .  S
C1565      C1566   1.202       .  T
C1567      C1568   1.203       .  T
C1573      C1574   1.401       .  A
C1573      C1578   1.401       .  A
C1573      C1581   1.437       .  S
C1574      C1575   1.398       .  A
C1574      H1583   1.084       .  S
C1575      C1576   1.401       .  A
C1575      H1584   1.084       .  S
C1576      C1577   1.401       .  A
C1576      C1579   1.437       .  S
C1577      C1578   1.398       .  A
C1577      H1585   1.084       .  S
C1578      H1586   1.083       .  S
C1579      C1580   1.205       .  T
C1581      C1582   1.204       .  T
C1587      C1588   1.401       .  A
C1587      C1592   1.401       .  A
C1587      C1595   1.438       .  S
C1588      C1589   1.399       .  A
C1588      H1597   1.083       .  S
C1589      C1590   1.401       .  A
C1589      H1598   1.084       .  S
C1590      C1591   1.401       .  A
C1590      C1593   1.438       .  S
C1591      C1592   1.398       .  A
C1591      H1599   1.084       .  S
C1592      H1600   1.083       .  S
C1593      C1594   1.205       .  T
C1595      C1596   1.205       .  T
C1601      C1602   1.401       .  A
C1601      C1606   1.401       .  A
C1601      C1609   1.436       .  S
C1602      C1603   1.398       .  A
C1602      H1611   1.083       .  S
C1603      C1604   1.401       .  A
C1603      H1612   1.084       .  S
C1604      C1605   1.400       .  A
C1604      C1607   1.434       .  S
C1605      C1606   1.397       .  A
C1605      H1613   1.084       .  S
C1606      H1614   1.083       .  S
C1607      C1608   1.203       .  T
C1609      C1610   1.204       .  T
C1615      C1616   1.401       .  A
C1615      C1620   1.400       .  A
C1615      C1623   1.438       .  S
C1616      C1617   1.399       .  A
C1616      H1625   1.084       .  S
C1617      C1618   1.401       .  A
C1617      H1626   1.083       .  S
C1618      C1619   1.401       .  A
C1618      C1621   1.438       .  S
C1619      C1620   1.398       .  A
C1619      H1627   1.083       .  S
C1620      H1628   1.083       .  S
C1621      C1622   1.205       .  T
C1623      C1624   1.205       .  T
C1629      C1630   1.401       .  A
C1629      C1634   1.401       .  A
C1629      C1637   1.437       .  S
C1630      C1631   1.398       .  A
C1630      H1639   1.083       .  S
C1631      C1632   1.400       .  A
C1631      H1640   1.084       .  S
C1632      C1633   1.401       .  A
C1632      C1635   1.435       .  S
C1633      C1634   1.398       .  A
C1633      H1641   1.084       .  S
C1634      H1642   1.083       .  S
C1635      C1636   1.204       .  T
C1637      C1638   1.204       .  T
C1643      C1644   1.401       .  A
C1643      C1648   1.401       .  A
C1643      C1651   1.439       .  S
C1644      C1645   1.398   1_545  A
C1644      H1653   1.083       .  S
C1645      C1646   1.401       .  A
C1645      H1654   1.083       .  S
C1646      C1647   1.401       .  A
C1646      C1649   1.439       .  S
C1647      C1648   1.399   1_565  A
C1647      H1655   1.083       .  S
C1648      H1656   1.083       .  S
C1649      C1650   1.205       .  T
C1651      C1652   1.206       .  T
C1657      C1658   1.401       .  A
C1657      C1662   1.401       .  A
C1657      C1665   1.439       .  S
C1658      C1659   1.399       .  A
C1658      H1667   1.083       .  S
C1659      C1660   1.401       .  A
C1659      H1668   1.083       .  S
C1660      C1661   1.401       .  A
C1660      C1663   1.439       .  S
C1661      C1662   1.398       .  A
C1661      H1669   1.083       .  S
C1662      H1670   1.083       .  S
C1663      C1664   1.206       .  T
C1665      C1666   1.205       .  T
C1671      C1672   1.401       .  A
C1671      C1676   1.401       .  A
C1671      C1679   1.439       .  S
C1672      C1673   1.399       .  A
C1672      H1681   1.083       .  S
C1673      C1674   1.401       .  A
C1673      H1682   1.083       .  S
C1674      C1675   1.401       .  A
C1674      C1677   1.439       .  S
C1675      C1676   1.399       .  A
C1675      H1683   1.084       .  S
C1676      H1684   1.083       .  S
C1677      C1678   1.206       .  T
C1679      C1680   1.205       .  T
C1685      C1686   1.401       .  A
C1685      C1690   1.401       .  A
C1685      C1693   1.437       .  S
C1686      C1687   1.398       .  A
C1686      H1695   1.083       .  S
C1687      C1688   1.401       .  A
C1687      H1696   1.083       .  S
C1688      C1689   1.401       .  A
C1688      C1691   1.436       .  S
C1689      C1690   1.398       .  A
C1689      H1697   1.084       .  S
C1690      H1698   1.083       .  S
C1691      C1692   1.204       .  T
C1693      C1694   1.204       .  T
C1699      C1700   1.401       .  A
C1699      C1704   1.401       .  A
C1699      C1707   1.440       .  S
C1700      C1701   1.399       .  A
C1700      H1709   1.083       .  S
C1701      C1702   1.401       .  A
C1701      H1710   1.083       .  S
C1702      C1703   1.401       .  A
C1702      C1705   1.439       .  S
C1703      C1704   1.399       .  A
C1703      H1711   1.083       .  S
C1704      H1712   1.083       .  S
C1705      C1706   1.206       .  T
C1707      C1708   1.206       .  T
C1713      C1714   1.401       .  A
C1713      C1718   1.401       .  A
C1713      C1721   1.438       .  S
C1714      C1715   1.398       .  A
C1714      H1723   1.084       .  S
C1715      C1716   1.401       .  A
C1715      H1724   1.083       .  S
C1716      C1717   1.401       .  A
C1716      C1719   1.438       .  S
C1717      C1718   1.399       .  A
C1717      H1725   1.083       .  S
C1718      H1726   1.084       .  S
C1719      C1720   1.205       .  T
C1721      C1722   1.205       .  T
C1727      C1728   1.401       .  A
C1727      C1732   1.401       .  A
C1727      C1735   1.439       .  S
C1728      C1729   1.398       .  A
C1728      H1737   1.083       .  S
C1729      C1730   1.401       .  A
C1729      H1738   1.084       .  S
C1730      C1731   1.401       .  A
C1730      C1733   1.438       .  S
C1731      C1732   1.399       .  A
C1731      H1739   1.084       .  S
C1732      H1740   1.083       .  S
C1733      C1734   1.205       .  T
C1735      C1736   1.205       .  T
C1741      C1742   1.401       .  A
C1741      C1746   1.401       .  A
C1741      C1749   1.438       .  S
C1742      C1743   1.398       .  A
C1742      H1751   1.083       .  S
C1743      C1744   1.401       .  A
C1743      H1752   1.083       .  S
C1744      C1745   1.401       .  A
C1744      C1747   1.437       .  S
C1745      C1746   1.399       .  A
C1745      H1753   1.084       .  S
C1746      H1754   1.083       .  S
C1747      C1748   1.205       .  T
C1749      C1750   1.205       .  T
C1755      C1756   1.402       .  A
C1755      C1760   1.401       .  A
C1755      C1763   1.439       .  S
C1756      C1757   1.399       .  A
C1756      H1765   1.083       .  S
C1757      C1758   1.401       .  A
C1757      H1766   1.084       .  S
C1758      C1759   1.400       .  A
C1758      C1761   1.438       .  S
C1759      C1760   1.398       .  A
C1759      H1767   1.084       .  S
C1760      H1768   1.083       .  S
C1761      C1762   1.205       .  T
C1763      C1764   1.205       .  T
C1769      C1770   1.401       .  A
C1769      C1774   1.401       .  A
C1769      C1777   1.440       .  S
C1770      C1771   1.399       .  A
C1770      H1779   1.083       .  S
C1771      C1772   1.401       .  A
C1771      H1780   1.083       .  S
C1772      C1773   1.402       .  A
C1772      C1775   1.440       .  S
C1773      C1774   1.399       .  A
C1773      H1781   1.083       .  S
C1774      H1782   1.083       .  S
C1775      C1776   1.207       .  T
C1777      C1778   1.206       .  T
C1783      C1784   1.401       .  A
C1783      C1788   1.401       .  A
C1783      C1791   1.440       .  S
C1784      C1785   1.399       .  A
C1784      H1793   1.083       .  S
C1785      C1786   1.401       .  A
C1785      H1794   1.084       .  S
C1786      C1787   1.401       .  A
C1786      C1789   1.440       .  S
C1787      C1788   1.399       .  A
C1787      H1795   1.083       .  S
C1788      H1796   1.083       .  S
C1789      C1790   1.206       .  T
C1791      C1792   1.206       .  T
C1797      C1798   1.401       .  A
C1797      C1802   1.401       .  A
C1797      C1805   1.438       .  S
C1798      C1799   1.398       .  A
C1798      H1807   1.083       .  S
C1799      C1800   1.401       .  A
C1799      H1808   1.084       .  S
C1800      C1801   1.401       .  A
C1800      C1803   1.437       .  S
C1801      C1802   1.398       .  A
C1801      H1809   1.084       .  S
C1802      H1810   1.083       .  S
C1803      C1804   1.205       .  T
C1805      C1806   1.205       .  T
C1811      C1812   1.402       .  A
C1811      C1816   1.401       .  A
C1811      C1819   1.439       .  S
C1812      C1813   1.399       .  A
C1812      H1821   1.083       .  S
C1813      C1814   1.401       .  A
C1813      H1822   1.084       .  S
C1814      C1815   1.401       .  A
C1814      C1817   1.438       .  S
C1815      C1816   1.398       .  A
C1815      H1823   1.083       .  S
C1816      H1824   1.083       .  S
C1817      C1818   1.205       .  T
C1819      C1820   1.205       .  T
