geometry optimzed in LAMMPS
_audit_creation_date              2020-12-01 
_audit_creation_method            'lammps2cif' 
_symmetry_space_group_name_H-M    'P1' 
_symmetry_Int_Tables_number       1 
_symmetry_cell_setting            triclinic 
loop_ 
_symmetry_equiv_pos_as_xyz 
  x,y,z 
_cell_length_a                    42.52066165 
_cell_length_b                    42.56480534336141 
_cell_length_c                    62.37793083625146 
_cell_angle_alpha                 90.12280956254764 
_cell_angle_beta                  90.14338679498766 
_cell_angle_gamma                 119.71467045049351 
loop_ 
_atom_site_label 
_atom_site_type_symbol 
_atom_site_fract_x 
_atom_site_fract_y 
_atom_site_fract_z 
_atom_site_charge 
O1          O  0.03616817  0.42906442  0.24761726    -0.74300
O2          O  0.02642126  0.33421753  0.25683072    -0.74400
O3          O  0.02316190  0.37178979  0.22268259    -0.74400
O4          O  0.04425942  0.39440513  0.28146205    -0.74500
O5          O  0.48625360  0.37326876  0.28915163    -0.74400
O6          O  0.46410492  0.34756492  0.22850323    -0.74400
O7          O  0.46811589  0.31307478  0.26399315    -0.74300
O8          O  0.47696720  0.40400988  0.25371264    -0.74400
Ni9        Ni  0.03460838  0.38301265  0.25198344     1.25400
Ni10       Ni  0.47177298  0.35847998  0.25918125     1.25400
C11         C  0.00705516  0.43119953  0.24903880     0.87900
C12         C  0.99463136  0.30770668  0.26125244     0.87800
C13         C  0.49095628  0.35687485  0.21556172     0.87800
C14         C  0.01982303  0.39008704  0.29481525     0.88000
O15         O  0.04763194  0.44714558  0.42775490    -0.74300
O16         O  0.14073494  0.45463402  0.41409451    -0.74400
O17         O  0.10877066  0.46264651  0.44931659    -0.79200
O18         O  0.07645990  0.43370503  0.39234385    -0.74500
O19         O  0.09977068  0.49097674  0.38197266    -0.74400
O20         O  0.12849896  0.52055424  0.44142769    -0.74400
O21         O  0.16156569  0.51271077  0.40626004    -0.74300
O22         O  0.07080719  0.50426730  0.41701767    -0.74400
Ni23       Ni  0.09268704  0.44736408  0.42103150     1.25400
Ni24       Ni  0.11610864  0.50911340  0.41117013     1.25400
C25         C  0.04503257  0.47587630  0.42515765     0.87900
C26         C  0.16708383  0.48629979  0.40923258     0.87800
C27         C  0.12199298  0.49542759  0.45515389     0.87800
C28         C  0.08145976  0.45670307  0.37781603     0.88000
O29         O  0.44278976  0.04236620  0.24949730    -0.74300
O30         O  0.43610827  0.13008177  0.25764184    -0.74400
O31         O  0.44314583  0.09389085  0.22366163    -0.74400
O32         O  0.43016919  0.07466342  0.28297777    -0.74500
O33         O  0.48960035  0.10567711  0.28914626    -0.74400
O34         O  0.50296700  0.12667468  0.22741550    -0.74400
O35         O  0.49568821  0.15971105  0.26297129    -0.74300
O36         O  0.50245600  0.07641417  0.25426951    -0.74400
Ni37       Ni  0.43589341  0.08423880  0.25327210     1.25400
Ni38       Ni  0.49977468  0.11839564  0.25861648     1.25400
C39         C  0.47461692  0.04578085  0.25121070     0.87900
C40         C  0.46593330  0.15976659  0.26157777     0.87800
C41         C  0.47432724  0.11242862  0.21535683     0.87800
C42         C  0.45683595  0.08504283  0.29578981     0.88000
O43         O  0.43013039  0.03583678  0.42950107    -0.74300
O44         O  0.34500405  0.04550999  0.41671144    -0.74400
O45         O  0.37413835  0.03279710  0.45190228    -0.74400
O46         O  0.40481121  0.05435455  0.39447098    -0.74500
O47         O  0.37575133  0.99625371  0.38535683    -0.74400
O48         O  0.34132983  0.47433573  0.44471155    -0.74400
O49         O  0.31635236  0.48753026  0.40751971    -0.74300
O50         O  0.39661847  0.47767053  0.42187642    -0.74400
Ni51       Ni  0.38960773  0.04427668  0.42334928     1.25400
Ni52       Ni  0.35631995  0.48199373  0.41451797     1.25400
C53         C  0.42651963  0.00390230  0.42783953     0.87900
C54         C  0.31598417  0.01669665  0.41045568     0.87800
C55         C  0.35328183  0.00066313  0.45822470     0.87800
C56         C  0.39721885  0.02979577  0.38045872     0.88000
O57         O  0.07970677  0.03762322  0.57712305    -0.74300
O58         O  0.17042652  0.03849009  0.58845915    -0.74400
O59         O  0.12884141  0.03022375  0.55376495    -0.74400
O60         O  0.12321010  0.05181754  0.61177074    -0.74500
O61         O  0.09133201  0.99354596  0.62028007    -0.74400
O62         O  0.09853002  0.47090449  0.56003232    -0.74400
O63         O  0.13761752  0.47994226  0.59632278    -0.74300
O64         O  0.05106866  0.47880902  0.58443275    -0.74400
Ni65       Ni  0.12683740  0.04171777  0.58265105     1.25400
Ni66       Ni  0.09379854  0.47875841  0.59063525     1.25400
C67         C  0.05017361  0.00690401  0.57868192     0.87900
C68         C  0.16800720  0.00785579  0.59324164     0.87800
C69         C  0.11402148  0.99784265  0.54700473     0.87800
C70         C  0.10501679  0.02731769  0.62543786     0.88000
O71         O  0.07207730  0.05548408  0.75787851    -0.74300
O72         O  0.16469978  0.14180280  0.74567177    -0.74400
O73         O  0.12265271  0.11246517  0.78039905    -0.74400
O74         O  0.11616926  0.08105772  0.72303040    -0.74500
O75         O  0.08829794  0.11102395  0.71267617    -0.74400
O76         O  0.09157819  0.14050844  0.77268115    -0.74400
O77         O  0.13388699  0.16974417  0.73724763    -0.74300
O78         O  0.04509910  0.08610114  0.74739211    -0.74400
Ni79       Ni  0.12006577  0.09668328  0.75190423     1.25400
Ni80       Ni  0.08891049  0.12806168  0.74208589     1.25400
C81         C  0.04306301  0.05764883  0.75507595     0.87900
C82         C  0.16390505  0.17066330  0.74015408     0.87800
C83         C  0.10729044  0.13003910  0.78642949     0.87800
C84         C  0.10069601  0.08942951  0.70840617     0.88000
O85         O  0.37503041  0.44981198  0.58099220    -0.74300
O86         O  0.28478162  0.44867056  0.59345227    -0.74400
O87         O  0.32509567  0.45698196  0.55843821    -0.74400
O88         O  0.33276690  0.43600463  0.61617555    -0.74500
O89         O  0.36387632  0.49433353  0.62489270    -0.74400
O90         O  0.35619619  0.51613683  0.56469104    -0.74400
O91         O  0.31732540  0.50738730  0.60114697    -0.74300
O92         O  0.40387045  0.50843587  0.58904514    -0.74400
Ni93       Ni  0.32817625  0.44571209  0.58715918     1.25400
Ni94       Ni  0.36120634  0.50863756  0.59531371     1.25400
C95         C  0.40453558  0.48055995  0.58247602     0.87900
C96         C  0.28681905  0.47901081  0.59867128     0.87800
C97         C  0.34025462  0.48921246  0.55147189     0.87800
C98         C  0.35037982  0.46066347  0.63000560     0.88000
O99         O  0.37017998  0.43481982  0.76242501    -0.74300
O100        O  0.28162980  0.34478231  0.74927177    -0.74400
O101        O  0.32067336  0.37714471  0.78483745    -0.74400
O102        O  0.32943759  0.40573790  0.72684989    -0.74500
O103        O  0.36171199  0.37899842  0.71910199    -0.74400
O104        O  0.35412152  0.35095633  0.77915798    -0.74400
O105        O  0.31584251  0.31955631  0.74299924    -0.74300
O106        O  0.40108934  0.40653244  0.75509201    -0.74400
Ni107      Ni  0.32415772  0.39148757  0.75595884     1.25400
Ni108      Ni  0.35914280  0.36289659  0.74873937     1.25400
C109        C  0.40041457  0.43467851  0.76111646     0.87900
C110        C  0.28484388  0.31678058  0.74512208     0.87800
C111        C  0.33639026  0.36045475  0.79190045     0.87800
C112        C  0.34801000  0.39893389  0.71357258     0.88000
O113        O  0.41393769  0.38471353  0.91671727    -0.74300
O114        O  0.32460753  0.29239121  0.92379747    -0.74400
O115        O  0.35961334  0.33800455  0.89098860    -0.74400
O116        O  0.38254859  0.33755199  0.94916004    -0.74500
O117        O  0.35440998  0.36778606  0.95852960    -0.74400
O118        O  0.32982613  0.36758174  0.89794873    -0.74400
O119        O  0.29720298  0.32364527  0.93224380    -0.74300
O120        O  0.38248962  0.41217493  0.92500668    -0.74400
Ni121      Ni  0.37104485  0.33690077  0.91992851     1.25400
Ni122      Ni  0.33963570  0.36853635  0.92876993     1.25400
C123        C  0.41212711  0.41372129  0.92008151     0.87900
C124        C  0.29576070  0.29346833  0.92903538     0.87800
C125        C  0.34301480  0.35409611  0.88446614     0.87800
C126        C  0.37509878  0.35450409  0.96322640     0.88000
O127        O  0.42946770  0.37426846  0.09559946    -0.74300
O128        O  0.43094444  0.28572660  0.08144212    -0.74400
O129        O  0.44169245  0.32650231  0.11691992    -0.74400
O130        O  0.41361774  0.33179431  0.06019037    -0.74500
O131        O  0.47091312  0.36498366  0.04992337    -0.74400
O132        O  0.50002374  0.35936491  0.10864863    -0.74400
O133        O  0.48860495  0.31995228  0.07202056    -0.74300
O134        O  0.48733990  0.40497409  0.08592512    -0.74400
Ni135      Ni  0.42678652  0.32821345  0.08871734     1.25400
Ni136      Ni  0.48871800  0.36318889  0.07866544     1.25400
C137        C  0.45941616  0.40442028  0.09351833     0.87900
C138        C  0.46132730  0.28886897  0.07523053     0.87800
C139        C  0.47475949  0.34318686  0.12269944     0.87800
C140        C  0.43666354  0.35073273  0.04597745     0.88000
O141        O  0.02753815  0.08999150  0.91293585    -0.74300
O142        O  0.12156403  0.17638423  0.92143250    -0.74400
O143        O  0.08200900  0.13654936  0.88728053    -0.74400
O144        O  0.06358888  0.13168832  0.94676345    -0.74500
O145        O  0.08515982  0.09420126  0.95190215    -0.74400
O146        O  0.11031626  0.10458443  0.89067952    -0.74400
O147        O  0.14474548  0.14030532  0.92724438    -0.74300
O148        O  0.05546440  0.05745179  0.91537961    -0.74400
Ni149      Ni  0.07299463  0.13510098  0.91699622     1.25400
Ni150      Ni  0.10012979  0.09816075  0.92156505     1.25400
C151        C  0.02690317  0.05937903  0.91276398     0.87900
C152        C  0.14897278  0.17186318  0.92508717     0.87800
C153        C  0.09811616  0.12117294  0.87888274     0.87800
C154        C  0.06749815  0.10975009  0.95880125     0.88000
O155        O  0.01563816  0.07858547  0.09368162    -0.74300
O156        O  0.01781721  0.16875486  0.07907760    -0.74400
O157        O  0.00882998  0.13005027  0.11505682    -0.74400
O158        O  0.03044519  0.11928884  0.05757328    -0.74500
O159        O  0.47206596  0.08884717  0.04864063    -0.74400
O160        O  0.44958440  0.09841654  0.10857354    -0.74400
O161        O  0.45909093  0.13629208  0.07159856    -0.74300
O162        O  0.45709836  0.04974285  0.08512275    -0.74400
Ni163      Ni  0.02034765  0.12538523  0.08646209     1.25400
Ni164      Ni  0.45742660  0.09243178  0.07810157     1.25400
C165        C  0.98481411  0.04911200  0.09221552     0.87900
C166        C  0.98749952  0.16688432  0.07383567     0.87800
C167        C  0.47640508  0.11518880  0.12180446     0.87800
C168        C  0.00583712  0.10162648  0.04369114     0.88000
C169        C  0.04904154  0.10204053  0.98031535    -0.00100
C170        C  0.06463835  0.09618391  0.99860423    -0.11900
C171        C  0.04954634  0.09363615  0.01912788     0.02200
C172        C  0.01812139  0.09709914  0.02185094    -0.00100
C173        C  0.00091369  0.09991755  0.00340779    -0.11900
C174        C  0.01578077  0.10223227  0.98291976     0.02100
H175        H  0.08930378  0.09478806  0.99700515     0.15100
H176        H  0.47642802  0.10177120  0.00502842     0.15100
C177        C  0.49577340  0.10454772  0.96477081     0.36700
C178        C  0.06674269  0.08700796  0.03718808     0.36600
N179        N  0.47974297  0.10637185  0.95026035    -0.43600
N180        N  0.08039395  0.08149149  0.05165018    -0.43600
C181        C  0.48276615  0.19936212  0.07155036    -0.00100
C182        C  0.44734087  0.19358022  0.06786611    -0.11900
C183        C  0.43948371  0.22192285  0.06858677     0.02200
C184        C  0.46735345  0.25735680  0.07285026    -0.00100
C185        C  0.50303544  0.26349370  0.07539403    -0.11900
C186        C  0.51091150  0.23515645  0.07480073     0.02100
H187        H  0.42509028  0.16649787  0.06493116     0.15100
H188        H  0.52506970  0.29064140  0.07850423     0.15100
C189        C  0.04799026  0.24380448  0.07787837     0.36700
C190        C  0.40274122  0.21382577  0.06462077     0.36600
N191        N  0.07778319  0.25087970  0.08032425    -0.43600
N192        N  0.37328443  0.20726051  0.06136901    -0.43600
C193        C  0.46391553  0.44028806  0.09911484    -0.00100
C194        C  0.49967312  0.46937105  0.10174748    -0.11900
C195        C  0.50728388  0.00525832  0.10118821     0.02200
C196        C  0.47894727  0.01274542  0.09800918    -0.00100
C197        C  0.44283502  0.98359543  0.09848248    -0.11900
C198        C  0.43525277  0.44772189  0.09902208     0.02100
H199        H  0.52207183  0.46408558  0.10308174     0.15100
H200        H  0.42030368  0.98869603  0.09736256     0.15100
C201        C  0.39786751  0.41936717  0.09824132     0.36700
C202        C  0.04469073  0.03357238  0.10283985     0.36600
N203        N  0.36781622  0.39679669  0.09782830    -0.43600
N204        N  0.07462590  0.05617231  0.10432657    -0.43600
C205        C  0.25919139  0.26045212  0.93038214    -0.00100
C206        C  0.25131711  0.22998285  0.91791187    -0.11900
C207        C  0.21565677  0.20112399  0.91598171     0.02200
C208        C  0.18668732  0.20263085  0.92632324    -0.00100
C209        C  0.19458377  0.23248408  0.93925267    -0.11900
C210        C  0.23033502  0.26077460  0.94176896     0.02100
H211        H  0.27282150  0.22917713  0.90905086     0.15100
H212        H  0.17286988  0.23323970  0.94791061     0.15100
C213        C  0.23651609  0.28928420  0.95670643     0.36700
C214        C  0.20947276  0.17075867  0.90265187     0.36600
N215        N  0.24142335  0.31199278  0.96876162    -0.43600
N216        N  0.20466801  0.14639164  0.89206873    -0.43600
C217        C  0.44339499  0.45053146  0.91851446    -0.00100
C218        C  0.46451668  0.46125029  0.89995629    -0.11900
C219        C  0.48977443  0.99778608  0.89663685     0.02200
C220        C  0.99342272  0.02444592  0.91166506    -0.00100
C221        C  0.97194578  0.01375257  0.93003868    -0.11900
C222        C  0.44774674  0.47708281  0.93381824     0.02100
H223        H  0.46089725  0.44124496  0.88797616     0.15100
H224        H  0.97626761  0.03362686  0.94231603     0.15100
C225        C  0.42873821  0.46733980  0.95404687     0.36700
C226        C  0.51272074  0.00733776  0.87798553     0.36600
N227        N  0.41370120  0.45952142  0.97028789    -0.43600
N228        N  0.53118074  0.01486258  0.86307702    -0.43600
C229        C  0.39261525  0.35904932  0.98463878    -0.00100
C230        C  0.37321407  0.35489570  0.00345108    -0.11900
C231        C  0.38768288  0.35359310  0.02352040     0.02200
C232        C  0.42233515  0.35604946  0.02510755    -0.00100
C233        C  0.44274235  0.36292964  0.00637118    -0.11900
C234        C  0.42843201  0.36468690  0.98636840     0.02100
H235        H  0.34621386  0.35146571  0.00244483     0.15100
H236        H  0.46965016  0.36611429  0.00723904     0.15100
C237        C  0.45148947  0.37290457  0.96782241     0.36700
C238        C  0.36624366  0.35022375  0.04218927     0.36600
N239        N  0.46998880  0.37963140  0.95297848    -0.43600
N240        N  0.34888690  0.34756986  0.05705673    -0.43600
C241        C  0.33580005  0.35512342  0.81542895    -0.00100
C242        C  0.36770864  0.36111723  0.82546345    -0.11900
C243        C  0.37085884  0.36275203  0.84780197     0.02200
C244        C  0.34116632  0.35724654  0.86083440    -0.00100
C245        C  0.30912895  0.35124886  0.85085416    -0.11900
C246        C  0.30622942  0.35022417  0.82836335     0.02100
H247        H  0.39096860  0.36629542  0.81579584     0.15100
H248        H  0.28611752  0.34655494  0.86059452     0.15100
C249        C  0.27233424  0.34347864  0.81900151     0.36700
C250        C  0.40568070  0.37167055  0.85681478     0.36600
N251        N  0.24518234  0.33815075  0.81152025    -0.43600
N252        N  0.43366616  0.37880632  0.86384680    -0.43600
C253        C  0.35485033  0.44807130  0.65166388    -0.00100
C254        C  0.35202779  0.41354896  0.65305989    -0.11900
C255        C  0.35143786  0.39756333  0.67284928     0.02200
C256        C  0.35376751  0.41604381  0.69200653    -0.00100
C257        C  0.35843751  0.45126109  0.69068276    -0.11900
C258        C  0.35918102  0.46737422  0.67085581     0.02100
H259        H  0.34922592  0.39829551  0.63853976     0.15100
H260        H  0.36062538  0.46602247  0.70532748     0.15100
C261        C  0.36247538  0.50278137  0.67082351     0.36700
C262        C  0.34574913  0.36119783  0.67304185     0.36600
N263        N  0.36514283  0.53119321  0.67086974    -0.43600
N264        N  0.34100452  0.33197452  0.67320496    -0.43600
C265        C  0.10610438  0.13459010  0.80999649    -0.00100
C266        C  0.07228364  0.11805493  0.82007965    -0.11900
C267        C  0.06938329  0.11208155  0.84231713     0.02200
C268        C  0.10075340  0.12266481  0.85508214    -0.00100
C269        C  0.13466554  0.13990980  0.84510953    -0.11900
C270        C  0.13752810  0.14589928  0.82282468     0.02100
H271        H  0.04789612  0.10790237  0.81041086     0.15100
H272        H  0.15896346  0.14938255  0.85476985     0.15100
C273        C  0.17316225  0.16399129  0.81341226     0.36700
C274        C  0.03359448  0.09364364  0.85158253     0.36600
N275        N  0.20179109  0.17868020  0.80595611    -0.43600
N276        N  0.00489105  0.07875499  0.85894725    -0.43600
C277        C  0.00611853  0.02766445  0.76040803    -0.00100
C278        C  0.50185394  0.49424911  0.76728065    -0.11900
C279        C  0.46719095  0.46444122  0.77000223     0.02200
C280        C  0.43600670  0.46725120  0.76511898    -0.00100
C281        C  0.44030537  0.50117394  0.76054731    -0.11900
C282        C  0.47454503  0.03136921  0.75811970     0.02100
H283        H  0.02520569  0.49140717  0.77028387     0.15100
H284        H  0.41663638  0.50386126  0.75738256     0.15100
C285        C  0.97612684  0.06536594  0.75351217     0.36700
C286        C  0.46453749  0.43118966  0.77765955     0.36600
N287        N  0.97703085  0.09242782  0.74977640    -0.43600
N288        N  0.46245694  0.40462343  0.78387051    -0.43600
C289        C  0.25341143  0.27965765  0.74386806    -0.00100
C290        C  0.22593427  0.27104089  0.72879611    -0.11900
C291        C  0.19801833  0.23511442  0.72607736     0.02200
C292        C  0.19708896  0.20688933  0.73876768    -0.00100
C293        C  0.22531166  0.21558732  0.75336319    -0.11900
C294        C  0.25305804  0.25146447  0.75612339     0.02100
H295        H  0.22662921  0.29226725  0.71886968     0.15100
H296        H  0.22475357  0.19461375  0.76345166     0.15100
C297        C  0.28003030  0.25889998  0.77247478     0.36700
C298        C  0.17084265  0.22808099  0.70995513     0.36600
N299        N  0.30147650  0.26478942  0.78565721    -0.43600
N300        N  0.14911338  0.22264749  0.69704687    -0.43600
C301        C  0.44090470  0.48615050  0.57701144    -0.00100
C302        C  0.46989399  0.52225478  0.57596633    -0.11900
C303        C  0.50569547  0.03000523  0.57506747     0.02200
C304        C  0.01351060  0.00172469  0.57468690    -0.00100
C305        C  0.48452812  0.46588409  0.57298354    -0.11900
C306        C  0.44849257  0.45780021  0.57443753     0.02100
H307        H  0.46469138  0.54471566  0.57693725     0.15100
H308        H  0.98971661  0.44332440  0.57179173     0.15100
C309        C  0.42041091  0.42028650  0.57450787     0.36700
C310        C  0.03397863  0.06759200  0.57612534     0.36600
N311        N  0.39801210  0.39017633  0.57459124    -0.43600
N312        N  0.05650087  0.09761984  0.57693482    -0.43600
C313        C  0.19949119  0.00208389  0.59412797    -0.00100
C314        C  0.22741310  0.02114849  0.60889006    -0.11900
C315        C  0.25450206  0.01185596  0.61204587     0.02200
C316        C  0.25448924  0.48360168  0.59989077    -0.00100
C317        C  0.22601089  0.46406750  0.58554405    -0.11900
C318        C  0.19871542  0.47290776  0.58264276     0.02100
H319        H  0.22738537  0.04243789  0.61846435     0.15100
H320        H  0.22577550  0.44270541  0.57590223     0.15100
C321        C  0.17012972  0.45143602  0.56754955     0.36700
C322        C  0.28162283  0.03134540  0.62829083     0.36600
N323        N  0.14722658  0.43372027  0.55559686    -0.43600
N324        N  0.30323774  0.04689021  0.64137278    -0.43600
C325        C  0.09960964  0.04019037  0.64685019    -0.00100
C326        C  0.10031760  0.07379406  0.64774289    -0.11900
C327        C  0.09911573  0.08978559  0.66728513     0.02200
C328        C  0.09728734  0.07234470  0.68678555    -0.00100
C329        C  0.09500876  0.03802170  0.68585022    -0.11900
C330        C  0.09596155  0.02190785  0.66627200     0.02100
H331        H  0.10254655  0.08821254  0.63299698     0.15100
H332        H  0.09319484  0.02384913  0.70063113     0.15100
C333        C  0.09525711  0.48765115  0.66666969     0.36700
C334        C  0.10190622  0.12497002  0.66681111     0.36600
N335        N  0.09462462  0.46016216  0.66704645    -0.43600
N336        N  0.10419100  0.15320260  0.66628409    -0.43600
C337        C  0.34009849  0.49323433  0.52756555    -0.00100
C338        C  0.32661778  0.46153681  0.51477064    -0.11900
C339        C  0.32926391  0.46282919  0.49232627     0.02200
C340        C  0.34513196  0.49643062  0.48179703    -0.00100
C341        C  0.35677642  0.02774679  0.49448285    -0.11900
C342        C  0.35471002  0.02650315  0.51697374     0.02100
H343        H  0.31499874  0.43521322  0.52230237     0.15100
H344        H  0.36878223  0.05405428  0.48689811     0.15100
C345        C  0.36881143  0.06015934  0.52864290     0.36700
C346        C  0.31699962  0.42927954  0.48079760     0.36600
N347        N  0.38023612  0.08720635  0.53794762    -0.43600
N348        N  0.30723999  0.40229088  0.47166948    -0.43600
C349        C  0.41484759  0.04216521  0.35879321    -0.00100
C350        C  0.44148553  0.07910924  0.35621601    -0.11900
C351        C  0.45760792  0.09342578  0.33625949     0.02200
C352        C  0.44756169  0.07083837  0.31812109    -0.00100
C353        C  0.42230729  0.03374424  0.32074860    -0.11900
C354        C  0.40615122  0.01930482  0.34068951     0.02100
H355        H  0.44931205  0.09747655  0.36977503     0.15100
H356        H  0.41416226  0.01602387  0.30684510     0.15100
C357        C  0.38030359  0.48136905  0.34186351     0.36700
C358        C  0.48229227  0.13180434  0.33450437     0.36600
N359        N  0.35939683  0.45080423  0.34267951    -0.43600
N360        N  0.50194842  0.16260066  0.33308111    -0.43600
C361        C  0.47199098  0.11656800  0.14555735    -0.00100
C362        C  0.49960870  0.14570813  0.15733705    -0.11900
C363        C  0.50140158  0.14529231  0.17989865     0.02200
C364        C  0.47521973  0.11521798  0.19136050    -0.00100
C365        C  0.44695446  0.08668865  0.17959535    -0.11900
C366        C  0.44517001  0.08705112  0.15709660     0.02100
H367        H  0.02051580  0.16875955  0.14880150     0.15100
H368        H  0.42636814  0.06323706  0.18801578     0.15100
C369        C  0.41689076  0.05565138  0.14630168     0.36700
C370        C  0.02978942  0.17636320  0.19082951     0.36600
N371        N  0.39426750  0.03040661  0.13767922    -0.43600
N372        N  0.05249554  0.20137477  0.19958015    -0.43600
C373        C  0.12552823  0.50192596  0.47850235    -0.00100
C374        C  0.10084062  0.51004360  0.48830464    -0.11900
C375        C  0.09507338  0.00621547  0.51049216     0.02200
C376        C  0.11407817  0.49377532  0.52341196    -0.00100
C377        C  0.13968120  0.48671779  0.51368938    -0.11900
C378        C  0.14517485  0.49027639  0.49138430     0.02100
H379        H  0.08481661  0.01790291  0.47848520     0.15100
H380        H  0.15612752  0.47948957  0.52352223     0.15100
C381        C  0.17153640  0.48245142  0.48196333     0.36700
C382        C  0.06936509  0.01529266  0.51957732     0.36600
N383        N  0.19278210  0.47644275  0.47432034    -0.43600
N384        N  0.04874234  0.02275734  0.52658722    -0.43600
C385        C  0.20535600  0.49464374  0.40832680    -0.00100
C386        C  0.23138960  0.52442341  0.42030304    -0.11900
C387        C  0.26840468  0.03441055  0.42000495     0.02200
C388        C  0.27993275  0.01433535  0.40753752    -0.00100
C389        C  0.25390929  0.48611064  0.39448387    -0.11900
C390        C  0.21711657  0.47621052  0.39478298     0.02100
H391        H  0.22287634  0.03964339  0.43027609     0.15100
H392        H  0.26223050  0.47081471  0.38435090     0.15100
C393        C  0.19220675  0.44805358  0.38051199     0.36700
C394        C  0.29330435  0.06421112  0.43334891     0.36600
N395        N  0.17224257  0.42577710  0.36891233    -0.43600
N396        N  0.31321813  0.08823899  0.44399209    -0.43600
C397        C  0.01292854  0.47871391  0.43131991    -0.00100
C398        C  0.51918925  0.51314898  0.43848422    -0.11900
C399        C  0.49143319  0.52186637  0.43869182     0.02200
C400        C  0.45639261  0.99565382  0.43172464    -0.00100
C401        C  0.44976915  0.46060906  0.42690194    -0.11900
C402        C  0.47761092  0.45206564  0.42654978     0.02100
H403        H  0.54641247  0.53390427  0.44282498     0.15100
H404        H  0.42280410  0.93924835  0.42216027     0.15100
C405        C  0.96936155  0.41619727  0.41940741     0.36700
C406        C  0.50006216  0.55771017  0.44545865     0.36600
N407        N  0.96280892  0.38767832  0.41371887    -0.43600
N408        N  0.50713286  0.58646523  0.45096695    -0.43600
C409        C  0.48690531  0.26978547  0.26252584    -0.00100
C410        C  0.95463104  0.24237761  0.25296008    -0.11900
C411        C  0.44561014  0.20588848  0.25352170     0.02200
C412        C  0.46878591  0.19598595  0.26399092    -0.00100
C413        C  0.49980771  0.22330407  0.27464641    -0.11900
C414        C  0.50910350  0.25977290  0.27383155     0.02100
H415        H  0.93693090  0.24976937  0.24450427     0.15100
H416        H  0.51768645  0.21631669  0.28324029     0.15100
C417        C  0.54099800  0.28622933  0.28516086     0.36700
C418        C  0.91329611  0.17948938  0.24242168     0.36600
N419        N  0.56646977  0.30746126  0.29430212    -0.43600
N420        N  0.88738872  0.15841498  0.23355241    -0.43600
C421        C  0.48147564  0.01512768  0.25062883    -0.00100
C422        C  0.47323292  0.49356372  0.23224981    -0.11900
C423        C  0.48525214  0.46836484  0.23024531     0.02200
C424        C  0.50652014  0.46512079  0.24662476    -0.00100
C425        C  0.51553041  0.48730845  0.26474008    -0.11900
C426        C  0.50313652  0.01203195  0.26688207     0.02100
H427        H  0.45734895  0.99642711  0.21946269     0.15100
H428        H  0.53010947  0.48353142  0.27788024     0.15100
C429        C  0.51163546  0.03276182  0.28655807     0.36700
C430        C  0.47455692  0.44514995  0.21158020     0.36600
N431        N  0.51836828  0.04917503  0.30236545    -0.43600
N432        N  0.46602058  0.42644617  0.19666979    -0.43600
C433        C  0.06458301  0.44203690  0.35634023    -0.00100
C434        C  0.03028842  0.41024146  0.35540682    -0.11900
C435        C  0.01435263  0.39317004  0.33575290     0.02200
C436        C  0.03285892  0.40762792  0.31637725    -0.00100
C437        C  0.06683007  0.43977283  0.31738222    -0.11900
C438        C  0.08264973  0.45683243  0.33694806     0.02100
H439        H  0.01603685  0.39828477  0.37019496     0.15100
H440        H  0.08161023  0.45150162  0.30270485     0.15100
C441        C  0.11854729  0.48799910  0.33675348     0.36700
C442        C  0.98010795  0.35990320  0.33603709     0.36600
N443        N  0.64784372  0.51270806  0.33667451    -0.43600
N444        N  0.95270379  0.33314842  0.33627384    -0.43600
C445        C  0.48181987  0.34471972  0.14629141    -0.00100
C446        C  0.45344306  0.32009692  0.15964970    -0.11900
C447        C  0.45524921  0.32362122  0.18206605     0.02200
C448        C  0.48632963  0.35180787  0.19184343    -0.00100
C449        C  0.01505584  0.37580828  0.17855618    -0.11900
C450        C  0.51308155  0.37278266  0.15613128     0.02100
H451        H  0.42904384  0.29828848  0.15253950     0.15100
H452        H  0.03914492  0.39791175  0.18575321     0.15100
C453        C  0.04243913  0.40013999  0.14370573     0.36700
C454        C  0.42496052  0.29773005  0.19456956     0.36600
N455        N  0.06596962  0.42219204  0.13378404    -0.43600
N456        N  0.40063149  0.27703419  0.20459329    -0.43600
O457        O  0.03629399  0.92916329  0.24762170    -0.74300
O458        O  0.02661825  0.83434907  0.25686297    -0.74400
O459        O  0.02333533  0.87188640  0.22270065    -0.74400
O460        O  0.04440407  0.89454134  0.28147965    -0.74500
O461        O  0.48612733  0.87319896  0.28912810    -0.74400
O462        O  0.46408603  0.84753357  0.22847315    -0.74400
O463        O  0.46810064  0.81304898  0.26396615    -0.74300
O464        O  0.47685061  0.90394476  0.25368267    -0.74400
Ni465      Ni  0.03476930  0.88312999  0.25200224     1.25400
Ni466      Ni  0.47170337  0.85843084  0.25915213     1.25400
C467        C  0.00716643  0.93127492  0.24903032     0.87900
C468        C  0.99483660  0.80782518  0.26128672     0.87800
C469        C  0.49095527  0.85687140  0.21554251     0.87800
C470        C  0.01995673  0.89021216  0.29482743     0.88000
O471        O  0.04772249  0.94719598  0.42775037    -0.74300
O472        O  0.14082099  0.95465607  0.41412378    -0.74400
O473        O  0.10882225  0.96265380  0.44933743    -0.79200
O474        O  0.07658221  0.93377690  0.39234862    -0.74500
O475        O  0.09993390  0.99106015  0.38199267    -0.74400
O476        O  0.12857064  0.02057076  0.44146501    -0.74400
O477        O  0.16169135  0.01274766  0.40631373    -0.74300
O478        O  0.07092876  0.00432399  0.41702027    -0.74400
Ni479      Ni  0.09277492  0.94740188  0.42104361     1.25400
Ni480      Ni  0.11623244  0.00916283  0.41119944     1.25400
C481        C  0.04513873  0.97593473  0.42515158     0.87900
C482        C  0.16718707  0.98631980  0.40927607     0.87800
C483        C  0.12203369  0.99542865  0.45518591     0.87800
C484        C  0.08160463  0.95679106  0.37782668     0.88000
O485        O  0.44292371  0.54241285  0.24952749    -0.74300
O486        O  0.43630559  0.63015174  0.25767946    -0.74400
O487        O  0.44332805  0.59396025  0.22369668    -0.74400
O488        O  0.43034171  0.57472656  0.28301374    -0.74500
O489        O  0.48977406  0.60574871  0.28918312    -0.74400
O490        O  0.50315233  0.62669025  0.22745277    -0.74400
O491        O  0.49588971  0.65977450  0.26299229    -0.74300
O492        O  0.50259103  0.57642057  0.25432242    -0.74400
Ni493      Ni  0.43606577  0.58430236  0.25330718     1.25400
Ni494      Ni  0.49994953  0.61843331  0.25865338     1.25400
C495        C  0.47473740  0.54580124  0.25124812     0.87900
C496        C  0.46613563  0.65983594  0.26160384     0.87800
C497        C  0.47451535  0.61246957  0.21539282     0.87800
C498        C  0.45700976  0.58512510  0.29582700     0.88000
O499        O  0.43014362  0.53616399  0.42950782    -0.74300
O500        O  0.34493746  0.54569697  0.41670328    -0.74400
O501        O  0.37412114  0.53307002  0.45190813    -0.74400
O502        O  0.40476995  0.55458830  0.39446805    -0.74500
O503        O  0.37578035  0.49647632  0.38537964    -0.74400
O504        O  0.34129529  0.97407316  0.44469131    -0.74400
O505        O  0.31636235  0.98734950  0.40751526    -0.74300
O506        O  0.39656001  0.97735896  0.42184113    -0.74400
Ni507      Ni  0.38957532  0.54453295  0.42334913     1.25400
Ni508      Ni  0.35629310  0.98174923  0.41449643     1.25400
C509        C  0.42657041  0.50424323  0.42785813     0.87900
C510        C  0.31593760  0.51686170  0.41044874     0.87800
C511        C  0.35330922  0.50093136  0.45824009     0.87800
C512        C  0.39722910  0.53001661  0.38047220     0.88000
O513        O  0.07975177  0.53762079  0.57707393    -0.74300
O514        O  0.17050210  0.53854686  0.58842785    -0.74400
O515        O  0.12891172  0.53024249  0.55372688    -0.74400
O516        O  0.12325668  0.55185146  0.61172678    -0.74500
O517        O  0.09142321  0.49357936  0.62024335    -0.74400
O518        O  0.09844733  0.97088410  0.56006320    -0.74400
O519        O  0.13751499  0.97988862  0.59635709    -0.74300
O520        O  0.05098953  0.97880268  0.58446349    -0.74400
Ni521      Ni  0.12689647  0.54174519  0.58261000     1.25400
Ni522      Ni  0.09370831  0.97872889  0.59066829     1.25400
C523        C  0.05022914  0.50689288  0.57863904     0.87900
C524        C  0.16810285  0.50792136  0.59321274     0.87800
C525        C  0.11409427  0.49785895  0.54697096     0.87800
C526        C  0.10508570  0.52734937  0.62539715     0.88000
O527        O  0.07213600  0.55538431  0.75783466    -0.74300
O528        O  0.16476681  0.64171460  0.74565440    -0.74400
O529        O  0.12271552  0.61233987  0.78037911    -0.74400
O530        O  0.11623811  0.58100649  0.72299714    -0.74500
O531        O  0.08836485  0.61098240  0.71266571    -0.74400
O532        O  0.09165538  0.64040571  0.77268136    -0.74400
O533        O  0.13395448  0.66966518  0.73725330    -0.74300
O534        O  0.04517435  0.58603081  0.74737874    -0.74400
Ni535      Ni  0.12013019  0.59659175  0.75187642     1.25400
Ni536      Ni  0.08898251  0.62798859  0.74208314     1.25400
C537        C  0.04312540  0.55755661  0.75503296     0.87900
C538        C  0.16397131  0.67057759  0.74014431     0.87800
C539        C  0.10736271  0.62991728  0.78642062     0.87800
C540        C  0.10076434  0.58939427  0.70838191     0.88000
O541        O  0.37479598  0.94955949  0.58098004    -0.74300
O542        O  0.28458111  0.94848424  0.59344006    -0.74400
O543        O  0.32487107  0.95674233  0.55841991    -0.74400
O544        O  0.33255294  0.93581203  0.61616656    -0.74500
O545        O  0.36369601  0.99414792  0.62486290    -0.74400
O546        O  0.35599306  0.01590058  0.56465946    -0.74400
O547        O  0.31715334  0.00720534  0.60112066    -0.74300
O548        O  0.40365909  0.00819178  0.58901188    -0.74400
Ni549      Ni  0.32795619  0.94549359  0.58714631     1.25400
Ni550      Ni  0.36101530  0.00842560  0.59528202     1.25400
C551        C  0.40430880  0.98030167  0.58245625     0.87900
C552        C  0.28663989  0.97883439  0.59865690     0.87800
C553        C  0.34004059  0.98896920  0.55144644     0.87800
C554        C  0.35018438  0.96048206  0.62998763     0.88000
O555        O  0.36989969  0.93483884  0.76241843    -0.74300
O556        O  0.28153845  0.84465746  0.74924796    -0.74400
O557        O  0.32047542  0.87710359  0.78483318    -0.74400
O558        O  0.32925921  0.90564522  0.72683108    -0.74500
O559        O  0.36169337  0.87905178  0.71913824    -0.74400
O560        O  0.35406237  0.85105230  0.77919677    -0.74400
O561        O  0.31589358  0.81957409  0.74302169    -0.74300
O562        O  0.40097427  0.90669128  0.75515336    -0.74400
Ni563      Ni  0.32396520  0.89142116  0.75594535     1.25400
Ni564      Ni  0.35911420  0.86298346  0.74878123     1.25400
C565        C  0.40018463  0.93479656  0.76114070     0.87900
C566        C  0.28485214  0.81671013  0.74511340     0.87800
C567        C  0.33625692  0.86048868  0.79191811     0.87800
C568        C  0.34790801  0.89889953  0.71357997     0.88000
O569        O  0.41376036  0.88478239  0.91673065    -0.74300
O570        O  0.32448234  0.79240337  0.92379563    -0.74400
O571        O  0.35945610  0.83805613  0.89099658    -0.74400
O572        O  0.38240754  0.83757559  0.94916088    -0.74500
O573        O  0.35420414  0.86773752  0.95855176    -0.74400
O574        O  0.32963382  0.86759312  0.89797193    -0.74400
O575        O  0.29703128  0.82360904  0.93224904    -0.74300
O576        O  0.38226758  0.91218416  0.92504475    -0.74400
Ni577      Ni  0.37089745  0.83694238  0.91993278     1.25400
Ni578      Ni  0.33943781  0.86851931  0.92879291     1.25400
C579        C  0.41191874  0.91377125  0.92010779     0.87900
C580        C  0.29561929  0.79344820  0.92903619     0.87800
C581        C  0.34283912  0.85413370  0.88448272     0.87800
C582        C  0.37491114  0.85447240  0.96323986     0.88000
O583        O  0.42932134  0.87415814  0.09560084    -0.74300
O584        O  0.43092124  0.78567433  0.08146184    -0.74400
O585        O  0.44166914  0.82647749  0.11692065    -0.74400
O586        O  0.41346959  0.83164482  0.06020706    -0.74500
O587        O  0.47073776  0.86489387  0.04990834    -0.74400
O588        O  0.49998319  0.85939390  0.10862184    -0.74400
O589        O  0.48855969  0.81995098  0.07200765    -0.74300
O590        O  0.48717719  0.90492157  0.08589687    -0.74400
Ni591      Ni  0.42670274  0.82812828  0.08872772     1.25400
Ni592      Ni  0.48861198  0.86316303  0.07864254     1.25400
C593        C  0.45924451  0.90433003  0.09350569     0.87900
C594        C  0.46131516  0.78885460  0.07524137     0.87800
C595        C  0.47474313  0.84319714  0.12268419     0.87800
C596        C  0.43647658  0.85059156  0.04597982     0.88000
O597        O  0.02749037  0.58981258  0.91289465    -0.74300
O598        O  0.12147107  0.67624612  0.92141370    -0.74400
O599        O  0.08197714  0.63639163  0.88725537    -0.74400
O600        O  0.06348127  0.63152777  0.94672690    -0.74500
O601        O  0.08509851  0.59408429  0.95189107    -0.74400
O602        O  0.11031406  0.60445922  0.89067960    -0.74400
O603        O  0.14468615  0.64020236  0.92724885    -0.74300
O604        O  0.05545086  0.55730789  0.91536705    -0.74400
Ni605      Ni  0.07292254  0.63494052  0.91696459     1.25400
Ni606      Ni  0.10009547  0.59803891  0.92156103     1.25400
C607        C  0.02687998  0.55921211  0.91273683     0.87900
C608        C  0.14889077  0.67174952  0.92508285     0.87800
C609        C  0.09811198  0.62103268  0.87887138     0.87800
C610        C  0.06741438  0.60961751  0.95877674     0.88000
O611        O  0.01574526  0.57862971  0.09364838    -0.74300
O612        O  0.01794190  0.66881392  0.07906966    -0.74400
O613        O  0.00899376  0.63010525  0.11504493    -0.74400
O614        O  0.03050452  0.61932642  0.05754409    -0.74500
O615        O  0.47219556  0.58892283  0.04866865    -0.74400
O616        O  0.44977850  0.59849552  0.10861331    -0.74400
O617        O  0.45922929  0.63636330  0.07164105    -0.74300
O618        O  0.45728658  0.54983360  0.08515036    -0.74400
Ni619      Ni  0.02046103  0.62543415  0.08644053     1.25400
Ni620      Ni  0.45758878  0.59251139  0.07813676     1.25400
C621        C  0.98491236  0.54916357  0.09219994     0.87900
C622        C  0.98762571  0.66695712  0.07384115     0.87800
C623        C  0.47661247  0.61526738  0.12183536     0.87800
C624        C  0.00587178  0.60165072  0.04367777     0.88000
C625        C  0.04897546  0.60193216  0.98029376    -0.00100
C626        C  0.06460670  0.59612649  0.99858301    -0.11900
C627        C  0.04954320  0.59361684  0.01910987     0.02200
C628        C  0.01811900  0.59707976  0.02183671    -0.00100
C629        C  0.00087312  0.59984171  0.00339473    -0.11900
C630        C  0.01570743  0.60210701  0.98290177     0.02100
H631        H  0.08927677  0.59474013  0.99698059     0.15100
H632        H  0.47653163  0.60182182  0.00504189     0.15100
C633        C  0.49584550  0.60452115  0.96478096     0.36700
C634        C  0.06676805  0.58702494  0.03716918     0.36600
N635        N  0.47980171  0.60630933  0.95026640    -0.43600
N636        N  0.08044280  0.58153650  0.05162995    -0.43600
C637        C  0.48287968  0.69942982  0.07158589    -0.00100
C638        C  0.44746241  0.69362750  0.06783679    -0.11900
C639        C  0.43956693  0.72194381  0.06855726     0.02200
C640        C  0.46739061  0.75737303  0.07288004    -0.00100
C641        C  0.50306929  0.76353710  0.07549427    -0.11900
C642        C  0.51098274  0.73522401  0.07490729     0.02100
H643        H  0.42524556  0.66654733  0.06484859     0.15100
H644        H  0.52506451  0.79068471  0.07865623     0.15100
C645        C  0.04806542  0.74385877  0.07814082     0.36700
C646        C  0.40283587  0.71382972  0.06452677     0.36600
N647        N  0.07783432  0.75092548  0.08069456    -0.43600
N648        N  0.37338915  0.70725373  0.06122460    -0.43600
C649        C  0.46370637  0.94017899  0.09910885    -0.00100
C650        C  0.49944870  0.96926292  0.10179290    -0.11900
C651        C  0.50751282  0.50536767  0.10114859     0.02200
C652        C  0.47916846  0.51285807  0.09802163    -0.00100
C653        C  0.44305646  0.48371596  0.09854715    -0.11900
C654        C  0.43503803  0.94760296  0.09895576     0.02100
H655        H  0.52184376  0.96397841  0.10316678     0.15100
H656        H  0.42052573  0.48882416  0.09747347     0.15100
C657        C  0.39766133  0.91924001  0.09809108     0.36700
C658        C  0.04479988  0.53359950  0.10273762     0.36600
N659        N  0.36761696  0.89666001  0.09760482    -0.43600
N660        N  0.07474362  0.55618980  0.10419570    -0.43600
C661        C  0.25906471  0.76041344  0.93038416    -0.00100
C662        C  0.25123716  0.72992303  0.91794836    -0.11900
C663        C  0.21559313  0.70103411  0.91602094     0.02200
C664        C  0.18659261  0.70253492  0.92632585    -0.00100
C665        C  0.19444243  0.73240924  0.93922249    -0.11900
C666        C  0.23017764  0.76072688  0.94174164     0.02100
H667        H  0.27276574  0.72911980  0.90911370     0.15100
H668        H  0.17270417  0.73316084  0.94785413     0.15100
C669        C  0.23630696  0.78925386  0.95665262     0.36700
C670        C  0.20945987  0.67064104  0.90273363     0.36600
N671        N  0.24117226  0.81197605  0.96868670    -0.43600
N672        N  0.20469454  0.64624987  0.89218675    -0.43600
C673        C  0.44316122  0.95060184  0.91852440    -0.00100
C674        C  0.46440229  0.96124775  0.90001378    -0.11900
C675        C  0.48986271  0.49780502  0.89660128     0.02200
C676        C  0.99341531  0.52426842  0.91164708    -0.00100
C677        C  0.97201700  0.51353120  0.93005306    -0.11900
C678        C  0.44742264  0.97721841  0.93375842     0.02100
H679        H  0.46085984  0.94119724  0.88808605     0.15100
H680        H  0.97637533  0.53338072  0.94235523     0.15100
C681        C  0.42828274  0.96756855  0.95394454     0.36700
C682        C  0.51271861  0.50742923  0.87790658     0.36600
N683        N  0.41313526  0.95982622  0.97015071    -0.43600
N684        N  0.53110654  0.51500408  0.86296277    -0.43600
C685        C  0.39239427  0.85897000  0.98465777    -0.00100
C686        C  0.37290893  0.85459464  0.00346254    -0.11900
C687        C  0.38735878  0.85322825  0.02352621     0.02200
C688        C  0.42209467  0.85586875  0.02511597    -0.00100
C689        C  0.44256045  0.86293841  0.00638872    -0.11900
C690        C  0.42825504  0.86473349  0.98639196     0.02100
H691        H  0.34585722  0.85103262  0.00245099     0.15100
H692        H  0.46951779  0.86624732  0.00725730     0.15100
C693        C  0.45135574  0.87310460  0.96785471     0.36700
C694        C  0.36579736  0.84958381  0.04218415     0.36600
N695        N  0.46988674  0.87994686  0.95301739    -0.43600
N696        N  0.34833963  0.84670066  0.05704288    -0.43600
C697        C  0.33566250  0.85517657  0.81544738    -0.00100
C698        C  0.36759317  0.86125727  0.82549055    -0.11900
C699        C  0.37072492  0.86288631  0.84782853     0.02200
C700        C  0.34099842  0.85730423  0.86085276    -0.00100
C701        C  0.30893658  0.85121934  0.85086363    -0.11900
C702        C  0.30605002  0.85018500  0.82837135     0.02100
H703        H  0.39087741  0.86649274  0.81582988     0.15100
H704        H  0.28589515  0.84645171  0.86059765     0.15100
C705        C  0.27212060  0.84330794  0.81899615     0.36700
C706        C  0.40555355  0.87184818  0.85684867     0.36600
N707        N  0.24493873  0.83786586  0.81150284    -0.43600
N708        N  0.43354502  0.87900867  0.86388162    -0.43600
C709        C  0.35466183  0.94791047  0.65164999    -0.00100
C710        C  0.35174653  0.91335012  0.65306590    -0.11900
C711        C  0.35118367  0.89740281  0.67286337     0.02200
C712        C  0.35365105  0.91596731  0.69200687    -0.00100
C713        C  0.35840136  0.95121153  0.69066386    -0.11900
C714        C  0.35910819  0.96728382  0.67082842     0.02100
H715        H  0.34884685  0.89803653  0.63855756     0.15100
H716        H  0.36067471  0.96602272  0.70530116     0.15100
C717        C  0.36248198  0.00272424  0.67077674     0.36700
C718        C  0.34536010  0.86098804  0.67308438     0.36600
N719        N  0.36521056  0.03116176  0.67080754    -0.43600
N720        N  0.34050055  0.83172372  0.67327161    -0.43600
C721        C  0.10617480  0.63444950  0.80998832    -0.00100
C722        C  0.07234841  0.61796733  0.82006236    -0.11900
C723        C  0.06942293  0.61199098  0.84229821     0.02200
C724        C  0.10077429  0.62252406  0.85507216    -0.00100
C725        C  0.13469557  0.63971213  0.84510790    -0.11900
C726        C  0.13758259  0.64570151  0.82282272     0.02100
H727        H  0.04797166  0.60785837  0.81038753     0.15100
H728        H  0.15898139  0.64914258  0.85477453     0.15100
C729        C  0.17322271  0.66373831  0.81341523     0.36700
C730        C  0.03362415  0.59360122  0.85155241     0.36600
N731        N  0.20185135  0.67838099  0.80595673    -0.43600
N732        N  0.00491314  0.57875090  0.85890862    -0.43600
C733        C  0.00617000  0.52756295  0.76033659    -0.00100
C734        C  0.50154705  0.99452017  0.76744278    -0.11900
C735        C  0.46687946  0.96474201  0.77021450     0.02200
C736        C  0.43571149  0.96744516  0.76511936    -0.00100
C737        C  0.44000234  0.00126185  0.76023754    -0.11900
C738        C  0.47485200  0.53130685  0.75851198     0.02100
H739        H  0.02514512  0.99143140  0.77020094     0.15100
H740        H  0.41633269  0.00385268  0.75687286     0.15100
C741        C  0.97613277  0.56516091  0.75319640     0.36700
C742        C  0.46418968  0.93161418  0.77813505     0.36600
N743        N  0.97700677  0.59217095  0.74933862    -0.43600
N744        N  0.46207640  0.90514556  0.78455449    -0.43600
C745        C  0.25347777  0.77955971  0.74383171    -0.00100
C746        C  0.22594563  0.77095862  0.72880353    -0.11900
C747        C  0.19803303  0.73503552  0.72608501     0.02200
C748        C  0.19715253  0.70679888  0.73874147    -0.00100
C749        C  0.22543223  0.71548023  0.75329078    -0.11900
C750        C  0.25318789  0.75135494  0.75604237     0.02100
H751        H  0.22658858  0.79219874  0.71891425     0.15100
H752        H  0.22490996  0.69449828  0.76335591     0.15100
C753        C  0.28022468  0.75877660  0.77234854     0.36700
C754        C  0.17079831  0.72802492  0.71000668     0.36600
N755        N  0.30172797  0.76466107  0.78549274    -0.43600
N756        N  0.14901975  0.72260999  0.69713582    -0.43600
C757        C  0.44067287  0.98587371  0.57700145    -0.00100
C758        C  0.46966199  0.02197545  0.57594058    -0.11900
C759        C  0.50592834  0.53028571  0.57506926     0.02200
C760        C  0.01355042  0.50167653  0.57463538    -0.00100
C761        C  0.48429827  0.96559928  0.57302622    -0.11900
C762        C  0.44826138  0.95751745  0.57446768     0.02100
H763        H  0.46446022  0.04443791  0.57688747     0.15100
H764        H  0.98967406  0.94339756  0.57167442     0.15100
C765        C  0.42017999  0.92000403  0.57457303     0.36700
C766        C  0.03399720  0.56755267  0.57581360     0.36600
N767        N  0.39778122  0.88989440  0.57468636    -0.43600
N768        N  0.05651152  0.59759274  0.57650469    -0.43600
C769        C  0.19960449  0.50217435  0.59411167    -0.00100
C770        C  0.22753381  0.52128309  0.60886224    -0.11900
C771        C  0.25464855  0.51202753  0.61202611     0.02200
C772        C  0.25432659  0.98344430  0.59988790    -0.00100
C773        C  0.22585719  0.96395470  0.58552934    -0.11900
C774        C  0.19858206  0.97282461  0.58263952     0.02100
H775        H  0.22749604  0.54258352  0.61841976     0.15100
H776        H  0.22561124  0.94260191  0.57587242     0.15100
C777        C  0.16998674  0.95137594  0.56754702     0.36700
C778        C  0.28178352  0.53157762  0.62825340     0.36600
N779        N  0.14707443  0.93366700  0.55559785    -0.43600
N780        N  0.30341192  0.54717423  0.64131976    -0.43600
C781        C  0.09968053  0.54020973  0.64681189    -0.00100
C782        C  0.10034682  0.57379295  0.64771334    -0.11900
C783        C  0.09914440  0.58976918  0.66726167     0.02200
C784        C  0.09735499  0.57232961  0.68675641    -0.00100
C785        C  0.09511773  0.53802625  0.68581116    -0.11900
C786        C  0.09607816  0.52193206  0.66622895     0.02100
H787        H  0.10254525  0.58820716  0.63297037     0.15100
H788        H  0.09333573  0.52385551  0.70058767     0.15100
C789        C  0.09507314  0.98759524  0.66672155     0.36700
C790        C  0.10189455  0.62493693  0.66679982     0.36600
N791        N  0.09438250  0.96007872  0.66710563    -0.43600
N792        N  0.10414782  0.65315656  0.66628445    -0.43600
C793        C  0.33989745  0.99298492  0.52753946    -0.00100
C794        C  0.32634071  0.96127785  0.51474647    -0.11900
C795        C  0.32903996  0.96256423  0.49230326     0.02200
C796        C  0.34504994  0.99617117  0.48177582    -0.00100
C797        C  0.35680147  0.52799404  0.49450722    -0.11900
C798        C  0.35479836  0.52674658  0.51700144     0.02100
H799        H  0.31461780  0.93494890  0.52228002     0.15100
H800        H  0.36871497  0.55429549  0.48692079     0.15100
C801        C  0.36884697  0.56039262  0.52867542     0.36700
C802        C  0.31666220  0.92899694  0.48077467     0.36600
N803        N  0.38023310  0.58743179  0.53798460    -0.43600
N804        N  0.30680517  0.90199201  0.47164695    -0.43600
C805        C  0.41490722  0.54236640  0.35881789    -0.00100
C806        C  0.44143622  0.57934130  0.35621571    -0.11900
C807        C  0.45762188  0.59362294  0.33626896     0.02200
C808        C  0.44773994  0.57097359  0.31816513    -0.00100
C809        C  0.42260571  0.53385581  0.32082057    -0.11900
C810        C  0.40640190  0.51944554  0.34075583     0.02100
H811        H  0.44913034  0.59775562  0.36974471     0.15100
H812        H  0.41459362  0.51609004  0.30694137     0.15100
C813        C  0.37988151  0.98127408  0.34175941     0.36700
C814        C  0.48220678  0.63201810  0.33448049     0.36600
N815        N  0.35883049  0.95074794  0.34254432    -0.43600
N816        N  0.50178867  0.66282540  0.33302950    -0.43600
C817        C  0.47222309  0.61663659  0.14559233    -0.00100
C818        C  0.49990787  0.64571353  0.15737608    -0.11900
C819        C  0.50169514  0.64528053  0.17993650     0.02200
C820        C  0.47542074  0.61526474  0.19139653    -0.00100
C821        C  0.44709696  0.58679813  0.17962775    -0.11900
C822        C  0.44533250  0.58716620  0.15712843     0.02100
H823        H  0.02094376  0.66866163  0.14882391     0.15100
H824        H  0.42644897  0.56338417  0.18804508     0.15100
C825        C  0.41699858  0.55580894  0.14633172     0.36700
C826        C  0.03026252  0.67619510  0.19084375     0.36600
N827        N  0.39433435  0.53059425  0.13770879    -0.43600
N828        N  0.05310961  0.70110519  0.19959056    -0.43600
C829        C  0.12553149  0.00190446  0.47853774    -0.00100
C830        C  0.10088679  0.01009782  0.48832722    -0.11900
C831        C  0.09505303  0.50615341  0.51047041     0.02200
C832        C  0.11402699  0.99376843  0.52344460    -0.00100
C833        C  0.13958719  0.98663546  0.51373420    -0.11900
C834        C  0.14510546  0.99018465  0.49143146     0.02100
H835        H  0.08471623  0.51779244  0.47847128     0.15100
H836        H  0.15598690  0.97935927  0.52357420     0.15100
C837        C  0.17141660  0.98227282  0.48202444     0.36700
C838        C  0.06929498  0.51515162  0.51956516     0.36600
N839        N  0.19261906  0.97619168  0.47439069    -0.43600
N840        N  0.04862785  0.52255451  0.52657523    -0.43600
C841        C  0.20544805  0.99462804  0.40835892    -0.00100
C842        C  0.23153265  0.02445305  0.42028429    -0.11900
C843        C  0.26827590  0.53443934  0.42002842     0.02200
C844        C  0.27987056  0.51446129  0.40752148    -0.00100
C845        C  0.25391994  0.98593846  0.39454759    -0.11900
C846        C  0.21714196  0.97608326  0.39486106     0.02100
H847        H  0.22268245  0.53953687  0.43032614     0.15100
H848        H  0.26218585  0.97056424  0.38444403     0.15100
C849        C  0.19217570  0.94784141  0.38065445     0.36700
C850        C  0.29312317  0.56419786  0.43341623     0.36600
N851        N  0.17216660  0.92549047  0.36910829    -0.43600
N852        N  0.31299442  0.58819434  0.44409362    -0.43600
C853        C  0.01304221  0.97878958  0.43130890    -0.00100
C854        C  0.51907017  0.01269992  0.43853043    -0.11900
C855        C  0.49134270  0.02145350  0.43870935     0.02200
C856        C  0.45647829  0.49603927  0.43172897    -0.00100
C857        C  0.44965786  0.96021400  0.42689724    -0.11900
C858        C  0.47748154  0.95164136  0.42656154     0.02100
H859        H  0.54629229  0.03343762  0.44288821     0.15100
H860        H  0.42291577  0.43962247  0.42218046     0.15100
C861        C  0.96944654  0.91620094  0.41952338     0.36700
C862        C  0.50000988  0.05731891  0.44545254     0.36600
N863        N  0.96288174  0.88765645  0.41388046    -0.43600
N864        N  0.50711844  0.08609591  0.45093650    -0.43600
C865        C  0.48697737  0.76982048  0.26253980    -0.00100
C866        C  0.95481728  0.74248108  0.25304087    -0.11900
C867        C  0.44571612  0.70589516  0.25358595     0.02200
C868        C  0.46897834  0.69605381  0.26400604    -0.00100
C869        C  0.50002885  0.72341536  0.27461634    -0.11900
C870        C  0.50925816  0.75986768  0.27380684     0.02100
H871        H  0.93706534  0.74985343  0.24462872     0.15100
H872        H  0.51797060  0.71647488  0.28317744     0.15100
C873        C  0.54116175  0.78636609  0.28511065     0.36700
C874        C  0.91343597  0.67958279  0.24255118     0.36600
N875        N  0.56663644  0.80763207  0.29423469    -0.43600
N876        N  0.88747819  0.65849537  0.23372882    -0.43600
C877        C  0.48155810  0.51512729  0.25066519    -0.00100
C878        C  0.47293140  0.99340730  0.23227068    -0.11900
C879        C  0.48492015  0.96818664  0.23025707     0.02200
C880        C  0.50635426  0.96505631  0.24657399    -0.00100
C881        C  0.51558865  0.98740082  0.26462756    -0.11900
C882        C  0.50302901  0.51190067  0.26698738     0.02100
H883        H  0.45779413  0.49668623  0.21939361     0.15100
H884        H  0.53031536  0.98372730  0.27772209     0.15100
C885        C  0.51127332  0.53245281  0.28672037     0.36700
C886        C  0.47404345  0.94484776  0.21164374     0.36600
N887        N  0.51779576  0.54871630  0.30257554    -0.43600
N888        N  0.46536771  0.92604829  0.19677342    -0.43600
C889        C  0.06471735  0.94214568  0.35635024    -0.00100
C890        C  0.03043794  0.91033031  0.35541810    -0.11900
C891        C  0.01449061  0.89327402  0.33576393     0.02200
C892        C  0.03297618  0.90776087  0.31638703    -0.00100
C893        C  0.06691892  0.93993794  0.31738869    -0.11900
C894        C  0.08274421  0.95699148  0.33695462     0.02100
H895        H  0.01620541  0.89834752  0.37020720     0.15100
H896        H  0.08167265  0.95169622  0.30270783     0.15100
C897        C  0.11860326  0.98821518  0.33675179     0.36700
C898        C  0.98025134  0.86000096  0.33604771     0.36600
N899        N  0.64723585  0.01319832  0.33661885    -0.43600
N900        N  0.95284785  0.83324544  0.33628472    -0.43600
C901        C  0.48182835  0.84473137  0.14627272    -0.00100
C902        C  0.45346364  0.82009426  0.15963198    -0.11900
C903        C  0.45527065  0.82361476  0.18204669     0.02200
C904        C  0.48634672  0.85180523  0.19182417    -0.00100
C905        C  0.01525121  0.87579908  0.17856323    -0.11900
C906        C  0.51308970  0.87279706  0.15611120     0.02100
H907        H  0.42906678  0.79827912  0.15252391     0.15100
H908        H  0.03938412  0.89785634  0.18575294     0.15100
C909        C  0.04265258  0.90005602  0.14370441     0.36700
C910        C  0.42498032  0.79771958  0.19454767     0.36600
N911        N  0.06622189  0.92205060  0.13377769    -0.43600
N912        N  0.40064841  0.77702216  0.20456885    -0.43600
O913        O  0.53630955  0.42914396  0.24763470    -0.74300
O914        O  0.52653987  0.33428657  0.25685306    -0.74400
O915        O  0.52326876  0.37185101  0.22270569    -0.74400
O916        O  0.54441304  0.39449146  0.28147927    -0.74500
O917        O  0.98608817  0.37314464  0.28912283    -0.74400
O918        O  0.96399212  0.34749183  0.22846529    -0.74400
O919        O  0.96798644  0.31298206  0.26394993    -0.74300
O920        O  0.97682187  0.40391489  0.25368696    -0.74400
Ni921      Ni  0.53473834  0.38308594  0.25200320     1.25400
Ni922      Ni  0.97163438  0.35838402  0.25914642     1.25400
C923        C  0.50720169  0.43128826  0.24905969     0.87900
C924        C  0.49474928  0.30778465  0.26128343     0.87800
C925        C  0.99085423  0.35681286  0.21553084     0.87800
C926        C  0.51999261  0.39020691  0.29483607     0.88000
O927        O  0.54776433  0.44746553  0.42775010    -0.74300
O928        O  0.64082722  0.45485262  0.41410762    -0.74400
O929        O  0.60888115  0.46292431  0.44932020    -0.79200
O930        O  0.57656917  0.43396351  0.39235257    -0.74500
O931        O  0.59994299  0.49123389  0.38196251    -0.74400
O932        O  0.62864785  0.52083511  0.44141972    -0.74400
O933        O  0.66171470  0.51293689  0.40626759    -0.74300
O934        O  0.57097913  0.50457993  0.41699138    -0.74400
Ni935      Ni  0.59279651  0.44763339  0.42103752     1.25400
Ni936      Ni  0.61627084  0.50938343  0.41116055     1.25400
C937        C  0.54518885  0.47620670  0.42513759     0.87900
C938        C  0.66719804  0.48650418  0.40924306     0.87800
C939        C  0.62211999  0.49570964  0.45515135     0.87800
C940        C  0.58160613  0.45695779  0.37781562     0.88000
O941        O  0.94284417  0.04235236  0.24949400    -0.74300
O942        O  0.93608902  0.13002667  0.25763452    -0.74400
O943        O  0.94315950  0.09385398  0.22365598    -0.74400
O944        O  0.93019288  0.07463129  0.28297237    -0.74500
O945        O  0.98962238  0.10568313  0.28914202    -0.74400
O946        O  0.00297839  0.12667227  0.22741034    -0.74400
O947        O  0.99566916  0.15969277  0.26296324    -0.74300
O948        O  0.00250633  0.07643354  0.25426818    -0.74400
Ni949      Ni  0.93591159  0.08420266  0.25326664     1.25400
Ni950      Ni  0.99979083  0.11839757  0.25861168     1.25400
C951        C  0.97468065  0.04579022  0.25120882     0.87900
C952        C  0.96590190  0.15972344  0.26157016     0.87800
C953        C  0.97433872  0.11240931  0.21535164     0.87800
C954        C  0.95686105  0.08503466  0.29578573     0.88000
O955        O  0.93015571  0.03594839  0.42949530    -0.74300
O956        O  0.84498174  0.04554196  0.41669722    -0.74400
O957        O  0.87415092  0.03288919  0.45189566    -0.74400
O958        O  0.90480176  0.05441053  0.39445889    -0.74500
O959        O  0.87577666  0.99630115  0.38536365    -0.74400
O960        O  0.84128197  0.47422580  0.44469396    -0.74400
O961        O  0.81633760  0.48748405  0.40750858    -0.74300
O962        O  0.89652469  0.47747159  0.42184556    -0.74400
Ni963      Ni  0.88960785  0.04435044  0.42333921     1.25400
Ni964      Ni  0.85626391  0.48187122  0.41449658     1.25400
C965        C  0.92656404  0.00402014  0.42784320     0.87900
C966        C  0.81597213  0.01671152  0.41044760     0.87800
C967        C  0.85331396  0.00075649  0.45822693     0.87800
C968        C  0.89722852  0.02984203  0.38045643     0.88000
O969        O  0.57961652  0.03752875  0.57711671    -0.74300
O970        O  0.67038690  0.03849471  0.58844650    -0.74400
O971        O  0.62876630  0.03015570  0.55375841    -0.74400
O972        O  0.62314998  0.05179362  0.61175837    -0.74500
O973        O  0.59131943  0.99352790  0.62028769    -0.74400
O974        O  0.59861846  0.47107973  0.56001708    -0.74400
O975        O  0.63769824  0.48006287  0.59630296    -0.74300
O976        O  0.55116164  0.47896501  0.58443461    -0.74400
Ni977      Ni  0.62676957  0.04167286  0.58264100     1.25400
Ni978      Ni  0.59388595  0.47889670  0.59062553     1.25400
C979        C  0.55010049  0.00679681  0.57868656     0.87900
C980        C  0.66799876  0.00787726  0.59323862     0.87800
C981        C  0.61396804  0.99776851  0.54701039     0.87800
C982        C  0.60498235  0.02730105  0.62543484     0.88000
O983        O  0.57200505  0.05545430  0.75786465    -0.74300
O984        O  0.66466745  0.14173226  0.74567377    -0.74400
O985        O  0.62259903  0.11241119  0.78039795    -0.74400
O986        O  0.61611388  0.08101615  0.72302685    -0.74500
O987        O  0.58827769  0.11101715  0.71267352    -0.74400
O988        O  0.59156887  0.14049986  0.77267794    -0.74400
O989        O  0.63389415  0.16971384  0.73724892    -0.74300
O990        O  0.54506890  0.08611482  0.74738659    -0.74400
Ni991      Ni  0.62001087  0.09663332  0.75190133     1.25400
Ni992      Ni  0.58889901  0.12805531  0.74208383     1.25400
C993        C  0.54300436  0.05764137  0.75505553     0.87900
C994        C  0.66389945  0.17060416  0.74015153     0.87800
C995        C  0.60725713  0.13000553  0.78642705     0.87800
C996        C  0.60065694  0.08940753  0.70840269     0.88000
O997        O  0.87493824  0.44969128  0.58096711    -0.74300
O998        O  0.78473966  0.44863826  0.59344559    -0.74400
O999        O  0.82502161  0.45690367  0.55842298    -0.74400
O1000       O  0.83270712  0.43593155  0.61616225    -0.74500
O1001       O  0.86386365  0.49426188  0.62487088    -0.74400
O1002       O  0.85616097  0.51605769  0.56467289    -0.74400
O1003       O  0.81732596  0.50735309  0.60113853    -0.74300
O1004       O  0.90382302  0.50831906  0.58901269    -0.74400
Ni1005     Ni  0.82810722  0.44563554  0.58714494     1.25400
Ni1006     Ni  0.86118403  0.50856199  0.59529340     1.25400
C1007       C  0.90445719  0.48042827  0.58244148     0.87900
C1008       C  0.78680693  0.47899180  0.59866415     0.87800
C1009       C  0.84019840  0.48913413  0.55145515     0.87800
C1010       C  0.85034725  0.46059143  0.62998746     0.88000
O1011       O  0.87002456  0.43479094  0.76239045    -0.74300
O1012       O  0.78159710  0.34466823  0.74923260    -0.74400
O1013       O  0.82057355  0.37708858  0.78481009    -0.74400
O1014       O  0.82935492  0.40563527  0.72681039    -0.74500
O1015       O  0.86174390  0.37899971  0.71910564    -0.74400
O1016       O  0.85409822  0.35097307  0.77916442    -0.74400
O1017       O  0.81589445  0.31952536  0.74299160    -0.74300
O1018       O  0.90104608  0.40659045  0.75512021    -0.74400
Ni1019     Ni  0.82406176  0.39140690  0.75592368     1.25400
Ni1020     Ni  0.85915104  0.36290978  0.74874814     1.25400
C1021       C  0.90029163  0.43471364  0.76110816     0.87900
C1022       C  0.78486951  0.31669868  0.74509323     0.87800
C1023       C  0.83632512  0.36044233  0.79189098     0.87800
C1024       C  0.84799174  0.39888128  0.71355462     0.88000
O1025       O  0.91383370  0.38465745  0.91670116    -0.74300
O1026       O  0.82449264  0.29234576  0.92378187    -0.74400
O1027       O  0.85949866  0.33796143  0.89097479    -0.74400
O1028       O  0.88244479  0.33749215  0.94914161    -0.74500
O1029       O  0.85432054  0.36773653  0.95851934    -0.74400
O1030       O  0.82972723  0.36755204  0.89794254    -0.74400
O1031       O  0.79710227  0.32361004  0.93223513    -0.74300
O1032       O  0.88239843  0.41212852  0.92499891    -0.74400
Ni1033     Ni  0.87093479  0.33684895  0.91991230     1.25400
Ni1034     Ni  0.83954061  0.36849596  0.92876226     1.25400
C1035       C  0.91203127  0.41366879  0.92006925     0.87900
C1036       C  0.79565043  0.29342993  0.92902228     0.87800
C1037       C  0.84291005  0.35406544  0.88445681     0.87800
C1038       C  0.87500657  0.35444898  0.96321067     0.88000
O1039       O  0.92941769  0.37422595  0.09556623    -0.74300
O1040       O  0.93089940  0.28568205  0.08141855    -0.74400
O1041       O  0.94164439  0.32646440  0.11689073    -0.74400
O1042       O  0.91356662  0.33174166  0.06016141    -0.74500
O1043       O  0.97086013  0.36493419  0.04989176    -0.74400
O1044       O  0.99997593  0.35932567  0.10861820    -0.74400
O1045       O  0.98855685  0.31990853  0.07199207    -0.74300
O1046       O  0.98728902  0.40492875  0.08589043    -0.74400
Ni1047     Ni  0.92673783  0.32816906  0.08868842     1.25400
Ni1048     Ni  0.98866806  0.36314432  0.07863403     1.25400
C1049       C  0.95936657  0.40437724  0.09348358     0.87900
C1050       C  0.96128294  0.28882515  0.07520746     0.87800
C1051       C  0.97471150  0.34314827  0.12266919     0.87800
C1052       C  0.93660972  0.35068133  0.04594782     0.88000
O1053       O  0.52744311  0.08991610  0.91291793    -0.74300
O1054       O  0.62145410  0.17632392  0.92141810    -0.74400
O1055       O  0.58191804  0.13647704  0.88726626    -0.74400
O1056       O  0.56347582  0.13162330  0.94674646    -0.74500
O1057       O  0.58506223  0.09415150  0.95189566    -0.74400
O1058       O  0.61023832  0.10452625  0.89067712    -0.74400
O1059       O  0.64464704  0.14025803  0.92724169    -0.74300
O1060       O  0.55538173  0.05738950  0.91537336    -0.74400
Ni1061     Ni  0.57289141  0.13503207  0.91698011     1.25400
Ni1062     Ni  0.60004013  0.09810632  0.92156102     1.25400
C1063       C  0.52681698  0.05930792  0.91275016     0.87900
C1064       C  0.64886693  0.17181179  0.92507772     0.87800
C1065       C  0.59803866  0.12110901  0.87887518     0.87800
C1066       C  0.56739439  0.10969667  0.95878985     0.88000
O1067       O  0.51558023  0.07856064  0.09367704    -0.74300
O1068       O  0.51780698  0.16875439  0.07907664    -0.74400
O1069       O  0.50881180  0.13004600  0.11505591    -0.74400
O1070       O  0.53039456  0.11926601  0.05756899    -0.74500
O1071       O  0.97212025  0.08884794  0.04863797    -0.74400
O1072       O  0.94960580  0.09839316  0.10856767    -0.74400
O1073       O  0.95910513  0.13626844  0.07159374    -0.74300
O1074       O  0.95715929  0.04974224  0.08511877    -0.74400
Ni1075     Ni  0.52031341  0.12537110  0.08645930     1.25400
Ni1076     Ni  0.95746442  0.09241925  0.07809688     1.25400
C1077       C  0.48474754  0.04909610  0.09221427     0.87900
C1078       C  0.48749594  0.16690053  0.07383700     0.87800
C1079       C  0.97642013  0.11517626  0.12180136     0.87800
C1080       C  0.50577906  0.10161137  0.04368950     0.88000
C1081       C  0.54894784  0.10199918  0.98030661    -0.00100
C1082       C  0.56455252  0.09614705  0.99859331    -0.11900
C1083       C  0.54947232  0.09360839  0.01911939     0.02200
C1084       C  0.51805091  0.09707607  0.02184730    -0.00100
C1085       C  0.50083497  0.09989050  0.00340672    -0.11900
C1086       C  0.51569077  0.10219640  0.98291609     0.02100
H1087       H  0.58921546  0.09474752  0.99699041     0.15100
H1088       H  0.97650423  0.10179472  0.00502564     0.15100
C1089       C  0.99587101  0.10458718  0.96477151     0.36700
C1090       C  0.56667809  0.08698591  0.03717704     0.36600
N1091       N  0.97984658  0.10641388  0.95025861    -0.43600
N1092       N  0.58033680  0.08147480  0.05163742    -0.43600
C1093       C  0.98274995  0.19933404  0.07154955    -0.00100
C1094       C  0.94731281  0.19353390  0.06788720    -0.11900
C1095       C  0.93944545  0.22186993  0.06860079     0.02200
C1096       C  0.96731620  0.25731573  0.07283474    -0.00100
C1097       C  0.00300693  0.26346752  0.07535998    -0.11900
C1098       C  0.01089310  0.23513696  0.07477419     0.02100
H1099       H  0.92506188  0.16644322  0.06497494     0.15100
H1100       H  0.02504213  0.29062302  0.07844924     0.15100
C1101       C  0.54799948  0.24380742  0.07792598     0.36700
C1102       C  0.90269024  0.21375227  0.06465980     0.36600
N1103       N  0.57778532  0.25086955  0.08038841    -0.43600
N1104       N  0.87322293  0.20717027  0.06142862    -0.43600
C1105       C  0.96387116  0.44024778  0.09907923    -0.00100
C1106       C  0.99963210  0.46932968  0.10170119    -0.11900
C1107       C  0.00737547  0.00528847  0.10116774     0.02200
C1108       C  0.97902975  0.01276899  0.09801308    -0.00100
C1109       C  0.94292038  0.98361694  0.09850836    -0.11900
C1110       C  0.93521023  0.44768466  0.09899833     0.02100
H1111       H  0.02203135  0.46404343  0.10302592     0.15100
H1112       H  0.92038554  0.98871502  0.09740769     0.15100
C1113       C  0.89782374  0.41933147  0.09822910     0.36700
C1114       C  0.54459744  0.03353777  0.10288509     0.36600
N1115       N  0.86777167  0.39676201  0.09782546    -0.43600
N1116       N  0.57453091  0.05613422  0.10439132    -0.43600
C1117       C  0.75907680  0.26041813  0.93036667    -0.00100
C1118       C  0.75121202  0.22993535  0.91791245    -0.11900
C1119       C  0.71555462  0.20107154  0.91598347     0.02200
C1120       C  0.68657817  0.20258487  0.92631111    -0.00100
C1121       C  0.69446349  0.23245377  0.93922261    -0.11900
C1122       C  0.73021130  0.26075143  0.94173715     0.02100
H1123       H  0.77272239  0.22912107  0.90906338     0.15100
H1124       H  0.67274313  0.23321680  0.94786841     0.15100
C1125       C  0.73637651  0.28927960  0.95665587     0.36700
C1126       C  0.70938144  0.17069403  0.90266857     0.36600
N1127       N  0.74126963  0.31200324  0.96869571    -0.43600
N1128       N  0.70458490  0.14631752  0.89209726    -0.43600
C1129       C  0.94330231  0.45047646  0.91849848    -0.00100
C1130       C  0.96443460  0.46117945  0.89994453    -0.11900
C1131       C  0.98982542  0.99787561  0.89663467     0.02200
C1132       C  0.49334156  0.02437066  0.91164743    -0.00100
C1133       C  0.47182795  0.01369580  0.93000556    -0.11900
C1134       C  0.94765019  0.47704052  0.93379221     0.02100
H1135       H  0.96081943  0.44116521  0.88797209     0.15100
H1136       H  0.47612297  0.03358299  0.94226858     0.15100
C1137       C  0.92862792  0.46731660  0.95401664     0.36700
C1138       C  0.01274174  0.00744290  0.87796919     0.36600
N1139       N  0.91357836  0.45951384  0.97025384    -0.43600
N1140       N  0.03117795  0.01497834  0.86304927    -0.43600
C1141       C  0.89253464  0.35899474  0.98461899    -0.00100
C1142       C  0.87314569  0.35484910  0.00343521    -0.11900
C1143       C  0.88762484  0.35354889  0.02350112     0.02200
C1144       C  0.92227501  0.35599879  0.02508078    -0.00100
C1145       C  0.94267123  0.36287195  0.00634040    -0.11900
C1146       C  0.92835066  0.36462745  0.98634077     0.02100
H1147       H  0.84614685  0.35142393  0.00243482     0.15100
H1148       H  0.96957769  0.36605226  0.00720275     0.15100
C1149       C  0.95139700  0.37283903  0.96778991     0.36700
C1150       C  0.86619848  0.35018909  0.04217464     0.36600
N1151       N  0.96988749  0.37956130  0.95294211    -0.43600
N1152       N  0.84885252  0.34754281  0.05704611    -0.43600
C1153       C  0.83572918  0.35512696  0.81542103    -0.00100
C1154       C  0.86763779  0.36113240  0.82546067    -0.11900
C1155       C  0.87077581  0.36275604  0.84779900     0.02200
C1156       C  0.84107283  0.35723386  0.86082646    -0.00100
C1157       C  0.80903593  0.35122809  0.85084140    -0.11900
C1158       C  0.80614666  0.35020851  0.82834996     0.02100
H1159       H  0.89090450  0.36631915  0.81579738     0.15100
H1160       H  0.78601560  0.34651753  0.86057824     0.15100
C1161       C  0.77224689  0.34343616  0.81898198     0.36700
C1162       C  0.90559229  0.37166628  0.85681667     0.36600
N1163       N  0.74509045  0.33808381  0.81149523    -0.43600
N1164       N  0.93357335  0.37879101  0.86385078    -0.43600
C1165       C  0.85482738  0.44800192  0.65164461    -0.00100
C1166       C  0.85197852  0.41346840  0.65304279    -0.11900
C1167       C  0.85139772  0.39748970  0.67283333     0.02200
C1168       C  0.85376506  0.41598927  0.69198842    -0.00100
C1169       C  0.85846254  0.45121611  0.69066248    -0.11900
C1170       C  0.85919630  0.46732244  0.67083464     0.02100
H1171       H  0.84914637  0.39820078  0.63852428     0.15100
H1172       H  0.86067399  0.46598762  0.70530680     0.15100
C1173       C  0.86251525  0.50273992  0.67080072     0.36700
C1174       C  0.84567192  0.36111072  0.67303165     0.36600
N1175       N  0.86520162  0.53115972  0.67084629    -0.43600
N1176       N  0.84089620  0.33187626  0.67319975    -0.43600
C1177       C  0.60605865  0.13454763  0.80999299    -0.00100
C1178       C  0.57223195  0.11798133  0.82006918    -0.11900
C1179       C  0.56932300  0.11199581  0.84230498     0.02200
C1180       C  0.60069086  0.12260300  0.85507576    -0.00100
C1181       C  0.63460911  0.13987769  0.84511002    -0.11900
C1182       C  0.63747948  0.14587373  0.82282560     0.02100
H1183       H  0.54784793  0.10781315  0.81039558     0.15100
H1184       H  0.65890422  0.14936684  0.85477510     0.15100
C1185       C  0.67311643  0.16398834  0.81341710     0.36700
C1186       C  0.53352924  0.09352020  0.85156249     0.36600
N1187       N  0.70174559  0.17869487  0.80596177    -0.43600
N1188       N  0.50482172  0.07860045  0.85892034    -0.43600
C1189       C  0.50604643  0.02766011  0.76036801    -0.00100
C1190       C  0.00166990  0.49441247  0.76739110    -0.11900
C1191       C  0.96700036  0.46463122  0.77015647     0.02200
C1192       C  0.93583311  0.46734699  0.76507919    -0.00100
C1193       C  0.94012729  0.50116955  0.76021414    -0.11900
C1194       C  0.97462972  0.03141868  0.75826590     0.02100
H1195       H  0.52539372  0.49117504  0.76998716     0.15100
H1196       H  0.91645874  0.50376826  0.75686086     0.15100
C1197       C  0.47601531  0.06525534  0.75321137     0.36700
C1198       C  0.96430839  0.43149175  0.77805670     0.36600
N1199       N  0.47689407  0.09226672  0.74935072    -0.43600
N1200       N  0.96219458  0.40501460  0.78446096    -0.43600
C1201       C  0.75346461  0.27956318  0.74382307    -0.00100
C1202       C  0.72597248  0.27095606  0.72876423    -0.11900
C1203       C  0.69803955  0.23503759  0.72605592     0.02200
C1204       C  0.69710252  0.20681123  0.73874846    -0.00100
C1205       C  0.72534453  0.21549688  0.75332793    -0.11900
C1206       C  0.75311413  0.25136804  0.75607415     0.02100
H1207       H  0.72666243  0.29218670  0.71884406     0.15100
H1208       H  0.72478105  0.19452237  0.76341826     0.15100
C1209       C  0.78010073  0.25879961  0.77241523     0.36700
C1210       C  0.67084719  0.22801759  0.70994744     0.36600
N1211       N  0.80155953  0.26468988  0.78558959    -0.43600
N1212       N  0.64910479  0.22259721  0.69705076    -0.43600
C1213       C  0.94080914  0.48598987  0.57696410    -0.00100
C1214       C  0.96979776  0.52208760  0.57586820    -0.11900
C1215       C  0.00580338  0.03016322  0.57515155     0.02200
C1216       C  0.51342085  0.00157581  0.57468870    -0.00100
C1217       C  0.98442177  0.46569944  0.57299556    -0.11900
C1218       C  0.94838893  0.45762629  0.57444230     0.02100
H1219       H  0.96459609  0.54455186  0.57679557     0.15100
H1220       H  0.48982900  0.44351640  0.57173736     0.15100
C1221       C  0.92030337  0.42011502  0.57456589     0.36700
C1222       C  0.53385657  0.06744541  0.57596490     0.36600
N1223       N  0.89790113  0.39000710  0.57469198    -0.43600
N1224       N  0.55636658  0.09748303  0.57671332    -0.43600
C1225       C  0.69950159  0.00213536  0.59411995    -0.00100
C1226       C  0.72743646  0.02123526  0.60886839    -0.11900
C1227       C  0.75454455  0.01196927  0.61202368     0.02200
C1228       C  0.75449911  0.48361786  0.59987948    -0.00100
C1229       C  0.72604627  0.46414495  0.58550684    -0.11900
C1230       C  0.69878408  0.47303034  0.58260131     0.02100
H1231       H  0.72740368  0.04253064  0.61843383     0.15100
H1232       H  0.72580711  0.44279657  0.57584887     0.15100
C1233       C  0.67022054  0.45161695  0.56748277     0.36700
C1234       C  0.78167702  0.03149494  0.62825658     0.36600
N1235       N  0.64733505  0.43394582  0.55550937    -0.43600
N1236       N  0.80330142  0.04706967  0.64132869    -0.43600
C1237       C  0.59957962  0.04017951  0.64684648    -0.00100
C1238       C  0.60030271  0.07379071  0.64773979    -0.11900
C1239       C  0.59909329  0.08977814  0.66728195     0.02200
C1240       C  0.59724592  0.07232709  0.68678122    -0.00100
C1241       C  0.59494867  0.03799638  0.68584485    -0.11900
C1242       C  0.59590569  0.02188524  0.66626713     0.02100
H1243       H  0.60254621  0.08821676  0.63299492     0.15100
H1244       H  0.59311599  0.02381464  0.70062499     0.15100
C1245       C  0.59547263  0.48776103  0.66667411     0.36700
C1246       C  0.60188942  0.12496509  0.66680944     0.36600
N1247       N  0.59490107  0.46030084  0.66703971    -0.43600
N1248       N  0.60417629  0.15319861  0.66628355    -0.43600
C1249       C  0.84004170  0.49315978  0.52754868    -0.00100
C1250       C  0.82642932  0.46145122  0.51475239    -0.11900
C1251       C  0.82909441  0.46273618  0.49230773     0.02200
C1252       C  0.84511426  0.49634367  0.48178038    -0.00100
C1253       C  0.85681068  0.02785415  0.49448163    -0.11900
C1254       C  0.85475815  0.02662001  0.51697338     0.02100
H1255       H  0.81468763  0.43511926  0.52228360     0.15100
H1256       H  0.86879401  0.05415656  0.48689203     0.15100
C1257       C  0.86883828  0.06027798  0.52863826     0.36700
C1258       C  0.81667744  0.42916473  0.48077673     0.36600
N1259       N  0.88024505  0.08732633  0.53793971    -0.43600
N1260       N  0.80679379  0.40215757  0.47164667    -0.43600
C1261       C  0.91486427  0.04219851  0.35879218    -0.00100
C1262       C  0.94149845  0.07914223  0.35620884    -0.11900
C1263       C  0.95762797  0.09344583  0.33625205     0.02200
C1264       C  0.94759120  0.07084528  0.31811983    -0.00100
C1265       C  0.92234336  0.03375122  0.32075473    -0.11900
C1266       C  0.90618133  0.01932467  0.34069605     0.02100
H1267       H  0.94931675  0.09751878  0.36976287     0.15100
H1268       H  0.91420655  0.01602070  0.30685611     0.15100
C1269       C  0.87997568  0.48130166  0.34178218     0.36700
C1270       C  0.98231040  0.13182379  0.33448964     0.36600
N1271       N  0.85895872  0.45076653  0.34257754    -0.43600
N1272       N  0.00196588  0.16261942  0.33306085    -0.43600
C1273       C  0.97199613  0.11654870  0.14555329    -0.00100
C1274       C  0.99958682  0.14571017  0.15733363    -0.11900
C1275       C  0.00138113  0.14529502  0.17989523     0.02200
C1276       C  0.97522982  0.11519873  0.19135573    -0.00100
C1277       C  0.94698964  0.08664681  0.17959002    -0.11900
C1278       C  0.94520311  0.08700918  0.15709140     0.02100
H1279       H  0.52055942  0.16874056  0.14880456     0.15100
H1280       H  0.92642644  0.06317897  0.18801005     0.15100
C1281       C  0.91695538  0.05558843  0.14629504     0.36700
C1282       C  0.52984292  0.17633758  0.19083122     0.36600
N1283       N  0.89435767  0.03032685  0.13767148    -0.43600
N1284       N  0.55257636  0.20133071  0.19958039    -0.43600
C1285       C  0.62565195  0.50221168  0.47849899    -0.00100
C1286       C  0.60089822  0.51023199  0.48830607    -0.11900
C1287       C  0.59499133  0.00608836  0.51049444     0.02200
C1288       C  0.61418994  0.49399144  0.52340638    -0.00100
C1289       C  0.63985972  0.48703644  0.51367938    -0.11900
C1290       C  0.64535679  0.49062496  0.49137525     0.02100
H1291       H  0.58471660  0.01774291  0.47848374     0.15100
H1292       H  0.65635090  0.47986105  0.52350840     0.15100
C1293       C  0.67177216  0.48288407  0.48194815     0.36700
C1294       C  0.56927060  0.01515214  0.51957537     0.36600
N1295       N  0.69305878  0.47694078  0.47429989    -0.43600
N1296       N  0.54863711  0.02260505  0.52658170    -0.43600
C1297       C  0.70545476  0.49480006  0.40833077    -0.00100
C1298       C  0.73151877  0.52455643  0.42030880    -0.11900
C1299       C  0.76837626  0.03443117  0.41995265     0.02200
C1300       C  0.77990403  0.01431478  0.40752491    -0.00100
C1301       C  0.75395062  0.48618604  0.39447430    -0.11900
C1302       C  0.71717288  0.47634183  0.39477710     0.02100
H1303       H  0.72284536  0.03967990  0.43019673     0.15100
H1304       H  0.76223748  0.47086890  0.38433510     0.15100
C1305       C  0.69223530  0.44821854  0.38049846     0.36700
C1306       C  0.79328251  0.06429929  0.43325265     0.36600
N1307       N  0.67224867  0.42597120  0.36889233    -0.43600
N1308       N  0.81320070  0.08838197  0.44386005    -0.43600
C1309       C  0.51309395  0.47907054  0.43129143    -0.00100
C1310       C  0.01902096  0.51276329  0.43856745    -0.11900
C1311       C  0.99129021  0.52151656  0.43875165     0.02200
C1312       C  0.95645305  0.99579298  0.43172286    -0.00100
C1313       C  0.94964147  0.46033692  0.42682851    -0.11900
C1314       C  0.97746028  0.45175858  0.42650106     0.02100
H1315       H  0.04623219  0.53347768  0.44296283     0.15100
H1316       H  0.92287274  0.93937688  0.42217591     0.15100
C1317       C  0.46950628  0.41647660  0.41951049     0.36700
C1318       C  0.99992003  0.55733373  0.44557714     0.36600
N1319       N  0.46294758  0.38793571  0.41386411    -0.43600
N1320       N  0.00699175  0.58606739  0.45113193    -0.43600
C1321       C  0.98680485  0.26971484  0.26250356    -0.00100
C1322       C  0.45472878  0.24246449  0.25297567    -0.11900
C1323       C  0.94553133  0.20580767  0.25351426     0.02200
C1324       C  0.96872645  0.19592973  0.26398248    -0.00100
C1325       C  0.99974177  0.22326305  0.27463465    -0.11900
C1326       C  0.00901675  0.25972511  0.27381364     0.02100
H1327       H  0.43704176  0.24987428  0.24452050     0.15100
H1328       H  0.01763231  0.21629331  0.28323016     0.15100
C1329       C  0.04090338  0.28619813  0.28514192     0.36700
C1330       C  0.41337830  0.17959015  0.24241765     0.36600
N1331       N  0.06636793  0.30744390  0.29428260    -0.43600
N1332       N  0.38747479  0.15853233  0.23353802    -0.43600
C1333       C  0.98156423  0.01515294  0.25062446    -0.00100
C1334       C  0.97309744  0.49348470  0.23222332    -0.11900
C1335       C  0.98510675  0.46827737  0.23022279     0.02200
C1336       C  0.00636833  0.46502918  0.24660472    -0.00100
C1337       C  0.01538133  0.48721894  0.26471874    -0.11900
C1338       C  0.00325334  0.01208040  0.26686841     0.02100
H1339       H  0.95738912  0.99641354  0.21947308     0.15100
H1340       H  0.02995785  0.48344046  0.27785991     0.15100
C1341       C  0.01177065  0.03282494  0.28653954     0.36700
C1342       C  0.97441563  0.44506460  0.21155688     0.36600
N1343       N  0.01851647  0.04925002  0.30234295    -0.43600
N1344       N  0.96588379  0.42636338  0.19664543    -0.43600
C1345       C  0.56474641  0.44228069  0.35633989    -0.00100
C1346       C  0.53037723  0.41058182  0.35540800    -0.11900
C1347       C  0.51445401  0.39346870  0.33576088     0.02200
C1348       C  0.53305079  0.40778197  0.31639075    -0.00100
C1349       C  0.56710473  0.43983346  0.31739515    -0.11900
C1350       C  0.58291073  0.45693385  0.33695450     0.02100
H1351       H  0.51605669  0.39873147  0.37019423     0.15100
H1352       H  0.58195787  0.45145969  0.30272476     0.15100
C1353       C  0.61888629  0.48798191  0.33676910     0.36700
C1354       C  0.48011501  0.36030598  0.33605284     0.36600
N1355       N  0.14744317  0.51282259  0.33664979    -0.43600
N1356       N  0.45263400  0.33363455  0.33629690    -0.43600
C1357       C  0.98176952  0.34467909  0.14626049    -0.00100
C1358       C  0.95340919  0.32001629  0.15961285    -0.11900
C1359       C  0.95519774  0.32353465  0.18202933     0.02200
C1360       C  0.98624456  0.35175632  0.19181215    -0.00100
C1361       C  0.51515476  0.37581870  0.17858121    -0.11900
C1362       C  0.01299799  0.37277807  0.15610572     0.02100
H1363       H  0.92903545  0.29818074  0.15249725     0.15100
H1364       H  0.53927056  0.39789613  0.18577263     0.15100
C1365       C  0.54254990  0.40010178  0.14372702     0.36700
C1366       C  0.92492849  0.29760062  0.19452802     0.36600
N1367       N  0.56610358  0.42211980  0.13380247    -0.43600
N1368       N  0.90061530  0.27687034  0.20454819    -0.43600
O1369       O  0.53620293  0.92913800  0.24762193    -0.74300
O1370       O  0.52654706  0.83433324  0.25686075    -0.74400
O1371       O  0.52326156  0.87187053  0.22269843    -0.74400
O1372       O  0.54431303  0.89451621  0.28147856    -0.74500
O1373       O  0.98622432  0.87324755  0.28913249    -0.74400
O1374       O  0.96416267  0.84755768  0.22848024    -0.74400
O1375       O  0.96817802  0.81308221  0.26397783    -0.74300
O1376       O  0.97694316  0.90398006  0.25368377    -0.74400
Ni1377     Ni  0.53468746  0.88310971  0.25200078     1.25400
Ni1378     Ni  0.97178960  0.85846638  0.25915860     1.25400
C1379       C  0.50707261  0.93124398  0.24903163     0.87900
C1380       C  0.49476759  0.80780316  0.26128136     0.87800
C1381       C  0.99102760  0.85688797  0.21554689     0.87800
C1382       C  0.51985834  0.89016928  0.29482513     0.88000
O1383       O  0.54766063  0.94704782  0.42775427    -0.74300
O1384       O  0.64078466  0.95456913  0.41411743    -0.74400
O1385       O  0.60877141  0.96252995  0.44933777    -0.79200
O1386       O  0.57653645  0.93366684  0.39234523    -0.74500
O1387       O  0.59985567  0.99095102  0.38199968    -0.74400
O1388       O  0.62849209  0.02044426  0.44147240    -0.74400
O1389       O  0.66162299  0.01265738  0.40631424    -0.74300
O1390       O  0.57084312  0.00417749  0.41703261    -0.74400
Ni1391     Ni  0.59272760  0.94728419  0.42104180     1.25400
Ni1392     Ni  0.61615430  0.00904431  0.41120670     1.25400
C1393       C  0.54506234  0.97577975  0.42516203     0.87900
C1394       C  0.66713875  0.98624117  0.40927127     0.87800
C1395       C  0.62196550  0.99530112  0.45519033     0.87800
C1396       C  0.58153843  0.95668349  0.37782864     0.88000
O1397       O  0.94282552  0.54237635  0.24949246    -0.74300
O1398       O  0.93627918  0.63015458  0.25765453    -0.74400
O1399       O  0.94328125  0.59395728  0.22366793    -0.74400
O1400       O  0.93025833  0.57469469  0.28298034    -0.74500
O1401       O  0.98968912  0.60566533  0.28915796    -0.74400
O1402       O  0.00310586  0.62665585  0.22743217    -0.74400
O1403       O  0.99585933  0.65973416  0.26298107    -0.74300
O1404       O  0.00249570  0.57635089  0.25428918    -0.74400
Ni1405     Ni  0.93600218  0.58428728  0.25327622     1.25400
Ni1406     Ni  0.99988523  0.61837607  0.25863135     1.25400
C1407       C  0.97462984  0.54574176  0.25121430     0.87900
C1408       C  0.96612000  0.65982386  0.26158707     0.87800
C1409       C  0.97447348  0.61245382  0.21536813     0.87800
C1410       C  0.95691807  0.58505266  0.29579590     0.88000
O1411       O  0.93011891  0.53595433  0.42948670    -0.74300
O1412       O  0.84500591  0.54565152  0.41669185    -0.74400
O1413       O  0.87414515  0.53295327  0.45188963    -0.74400
O1414       O  0.90479642  0.55445118  0.39445214    -0.74500
O1415       O  0.87572013  0.49634316  0.38535460    -0.74400
O1416       O  0.84133547  0.97415705  0.44470080    -0.74400
O1417       O  0.81637564  0.98737538  0.40751741    -0.74300
O1418       O  0.89660847  0.97746044  0.42185581    -0.74400
Ni1419     Ni  0.88960212  0.54440461  0.42333235     1.25400
Ni1420     Ni  0.85632546  0.98181405  0.41450541     1.25400
C1421       C  0.92649461  0.50401340  0.42783280     0.87900
C1422       C  0.81597802  0.51684320  0.41043929     0.87800
C1423       C  0.85329571  0.50082424  0.45822256     0.87800
C1424       C  0.89720425  0.52987811  0.38044982     0.88000
O1425       O  0.57985562  0.53778663  0.57710136    -0.74300
O1426       O  0.67059598  0.53867660  0.58843296    -0.74400
O1427       O  0.62901222  0.53042527  0.55373637    -0.74400
O1428       O  0.62335620  0.55196469  0.61175107    -0.74500
O1429       O  0.59151275  0.49368176  0.62024272    -0.74400
O1430       O  0.59842149  0.97082207  0.56007914    -0.74400
O1431       O  0.63752139  0.97989858  0.59636753    -0.74300
O1432       O  0.55095005  0.97871785  0.58447931    -0.74400
Ni1433     Ni  0.62699631  0.54189350  0.58262724     1.25400
Ni1434     Ni  0.59369219  0.97869113  0.59068147     1.25400
C1435       C  0.55032909  0.50706017  0.57865861     0.87900
C1436       C  0.66818746  0.50804156  0.59320252     0.87800
C1437       C  0.61419287  0.49804938  0.54696688     0.87800
C1438       C  0.60518092  0.52744598  0.62541196     0.88000
O1439       O  0.57229517  0.55541908  0.75791155    -0.74300
O1440       O  0.66481380  0.64181846  0.74566025    -0.74400
O1441       O  0.62284096  0.61244417  0.78040828    -0.74400
O1442       O  0.61632010  0.58104772  0.72303458    -0.74500
O1443       O  0.58837366  0.61095434  0.71270654    -0.74400
O1444       O  0.59165338  0.64038134  0.77271819    -0.74400
O1445       O  0.63391166  0.66968542  0.73727829    -0.74300
O1446       O  0.54521431  0.58594434  0.74743357    -0.74400
Ni1447     Ni  0.62023641  0.59666531  0.75191134     1.25400
Ni1448     Ni  0.58897877  0.62795541  0.74212164     1.25400
C1449       C  0.54324753  0.55752887  0.75512965     0.87900
C1450       C  0.66395787  0.67065355  0.74016005     0.87800
C1451       C  0.60742552  0.62996007  0.78645338     0.87800
C1452       C  0.60081627  0.58940349  0.70842074     0.88000
O1453       O  0.87488746  0.94971000  0.58099541    -0.74300
O1454       O  0.78464963  0.94860416  0.59343659    -0.74400
O1455       O  0.82495980  0.95687492  0.55842557    -0.74400
O1456       O  0.83261841  0.93594340  0.61617206    -0.74500
O1457       O  0.86373666  0.99427854  0.62487369    -0.74400
O1458       O  0.85606844  0.01603385  0.56466388    -0.74400
O1459       O  0.81720459  0.00732691  0.60111535    -0.74300
O1460       O  0.90372969  0.00833877  0.58903258    -0.74400
Ni1461     Ni  0.82803589  0.94562743  0.58715176     1.25400
Ni1462     Ni  0.86107483  0.00855887  0.59528961     1.25400
C1463       C  0.90439513  0.98045622  0.58247821     0.87900
C1464       C  0.78669654  0.97895064  0.59865008     0.87800
C1465       C  0.84012306  0.98910049  0.55145129     0.87800
C1466       C  0.85022885  0.96061213  0.62999696     0.88000
O1467       O  0.86995194  0.93491675  0.76243161    -0.74300
O1468       O  0.78150699  0.84478834  0.74927986    -0.74400
O1469       O  0.82049964  0.87720703  0.78485314    -0.74400
O1470       O  0.82925390  0.90575870  0.72685453    -0.74500
O1471       O  0.86162327  0.87910684  0.71913660    -0.74400
O1472       O  0.85402899  0.85109991  0.77919331    -0.74400
O1473       O  0.81580679  0.81965214  0.74302769    -0.74300
O1474       O  0.90095463  0.90670873  0.75513533    -0.74400
Ni1475     Ni  0.82397723  0.89153075  0.75596786     1.25400
Ni1476     Ni  0.85905855  0.86303105  0.74877629     1.25400
C1477       C  0.90021557  0.93483251  0.76113726     0.87900
C1478       C  0.78478252  0.81682089  0.74513665     0.87800
C1479       C  0.83625797  0.86056243  0.79192609     0.87800
C1480       C  0.84786712  0.89898604  0.71359094     0.88000
O1481       O  0.91383371  0.88485308  0.91672919    -0.74300
O1482       O  0.82454846  0.79248373  0.92379776    -0.74400
O1483       O  0.85951600  0.83813889  0.89099817    -0.74400
O1484       O  0.88248470  0.83764346  0.94915855    -0.74500
O1485       O  0.85429637  0.86781475  0.95856016    -0.74400
O1486       O  0.82970404  0.86768243  0.89798437    -0.74400
O1487       O  0.79710847  0.82369538  0.93226279    -0.74300
O1488       O  0.88235482  0.91226543  0.92505415    -0.74400
Ni1489     Ni  0.87096603  0.83701783  0.91993235     1.25400
Ni1490     Ni  0.83951991  0.86860347  0.92880417     1.25400
C1491       C  0.91200083  0.91384520  0.92011153     0.87900
C1492       C  0.79569028  0.79353243  0.92904535     0.87800
C1493       C  0.84289901  0.85421984  0.88448999     0.87800
C1494       C  0.87499929  0.85454209  0.96324213     0.88000
O1495       O  0.92940350  0.87418531  0.09560073    -0.74300
O1496       O  0.93097210  0.78568849  0.08145229    -0.74400
O1497       O  0.94172705  0.82648489  0.11691783    -0.74400
O1498       O  0.91354679  0.83168262  0.06020260    -0.74500
O1499       O  0.97081984  0.86491774  0.04990886    -0.74400
O1500       O  0.00004358  0.85939109  0.10862392    -0.74400
O1501       O  0.98861625  0.81995484  0.07200563    -0.74300
O1502       O  0.98726133  0.90493653  0.08590049    -0.74400
Ni1503     Ni  0.92676967  0.82815008  0.08872356     1.25400
Ni1504     Ni  0.98868278  0.86317222  0.07864397     1.25400
C1505       C  0.95933133  0.90435317  0.09350711     0.87900
C1506       C  0.96136336  0.78886149  0.07523265     0.87800
C1507       C  0.97479987  0.84319770  0.12268471     0.87800
C1508       C  0.93656072  0.85062863  0.04597806     0.88000
O1509       O  0.52756302  0.58987672  0.91292528    -0.74300
O1510       O  0.62153847  0.67631995  0.92144244    -0.74400
O1511       O  0.58204835  0.63645596  0.88728662    -0.74400
O1512       O  0.56355015  0.63160223  0.94675654    -0.74500
O1513       O  0.58516810  0.59416128  0.95192662    -0.74400
O1514       O  0.61039089  0.60452974  0.89071587    -0.74400
O1515       O  0.64475878  0.64028249  0.92728439    -0.74300
O1516       O  0.55552911  0.55737799  0.91540290    -0.74400
Ni1517     Ni  0.57299231  0.63500935  0.91699473     1.25400
Ni1518     Ni  0.60017041  0.59811384  0.92159728     1.25400
C1519       C  0.52695672  0.55927803  0.91276880     0.87900
C1520       C  0.64896036  0.67182792  0.92511365     0.87800
C1521       C  0.59818499  0.62109715  0.87890522     0.87800
C1522       C  0.56748057  0.60969319  0.95880892     0.88000
O1523       O  0.51578037  0.57867071  0.09367731    -0.74300
O1524       O  0.51795112  0.66884599  0.07909800    -0.74400
O1525       O  0.50901150  0.63013725  0.11507236    -0.74400
O1526       O  0.53053453  0.61936850  0.05757220    -0.74500
O1527       O  0.97216463  0.58888686  0.04864305    -0.74400
O1528       O  0.94975976  0.59848225  0.10858692    -0.74400
O1529       O  0.95921916  0.63634648  0.07161159    -0.74300
O1530       O  0.95724864  0.54980294  0.08512790    -0.74400
Ni1531     Ni  0.52048456  0.62547171  0.08646859     1.25400
Ni1532     Ni  0.95756390  0.59248744  0.07811089     1.25400
C1533       C  0.48495082  0.54920053  0.09222693     0.87900
C1534       C  0.48762912  0.66697862  0.07387115     0.87800
C1535       C  0.97659559  0.61524782  0.12180859     0.87800
C1536       C  0.50590398  0.60169302  0.04370456     0.88000
C1537       C  0.54903333  0.60200688  0.98032410    -0.00100
C1538       C  0.56463817  0.59616196  0.99861255    -0.11900
C1539       C  0.54956280  0.59363931  0.01913745     0.02200
C1540       C  0.51815501  0.59713019  0.02186323    -0.00100
C1541       C  0.50093419  0.59993289  0.00342155    -0.11900
C1542       C  0.51577783  0.60220844  0.98293045     0.02100
H1543       H  0.58929537  0.59475135  0.99701140     0.15100
H1544       H  0.97645845  0.60170841  0.00501564     0.15100
C1545       C  0.99575551  0.60438524  0.96475207     0.36700
C1546       C  0.56675374  0.58699983  0.03719593     0.36600
N1547       N  0.97969568  0.60614570  0.95023749    -0.43600
N1548       N  0.58039913  0.58147089  0.05165607    -0.43600
C1549       C  0.98289365  0.69941803  0.07155508    -0.00100
C1550       C  0.94748882  0.69363424  0.06778297    -0.11900
C1551       C  0.93960440  0.72195815  0.06851028     0.02200
C1552       C  0.96742711  0.75737444  0.07286464    -0.00100
C1553       C  0.00309595  0.76352215  0.07549912    -0.11900
C1554       C  0.01099875  0.73520286  0.07490378     0.02100
H1555       H  0.92527323  0.66656263  0.06477115     0.15100
H1556       H  0.02509054  0.79066100  0.07868359     0.15100
C1557       C  0.54805866  0.74389612  0.07812250     0.36700
C1558       C  0.90288810  0.71386772  0.06445159     0.36600
N1559       N  0.57783485  0.75097574  0.08065904    -0.43600
N1560       N  0.87345369  0.70731126  0.06112585    -0.43600
C1561       C  0.96380036  0.94020632  0.09910800    -0.00100
C1562       C  0.99954632  0.96929507  0.10177024    -0.11900
C1563       C  0.00747457  0.50532647  0.10110275     0.02200
C1564       C  0.97912909  0.51281984  0.09799092    -0.00100
C1565       C  0.94301650  0.48368022  0.09852600    -0.11900
C1566       C  0.93512871  0.94762612  0.09897957     0.02100
H1567       H  0.02194713  0.96401629  0.10312590     0.15100
H1568       H  0.92048719  0.48879192  0.09746206     0.15100
C1569       C  0.89775140  0.91926032  0.09814149     0.36700
C1570       C  0.54483371  0.53364417  0.10280275     0.36600
N1571       N  0.86770696  0.89667802  0.09767715    -0.43600
N1572       N  0.57477345  0.55623768  0.10427759    -0.43600
C1573       C  0.75913503  0.76049865  0.93039683    -0.00100
C1574       C  0.75130128  0.73000905  0.91795848    -0.11900
C1575       C  0.71565712  0.70111832  0.91603736     0.02200
C1576       C  0.68666176  0.70261624  0.92635098    -0.00100
C1577       C  0.69451781  0.73249006  0.93925003    -0.11900
C1578       C  0.73025424  0.76080965  0.94176302     0.02100
H1579       H  0.77282517  0.72920714  0.90911761     0.15100
H1580       H  0.67278412  0.73323936  0.94788852     0.15100
C1581       C  0.73639257  0.78933417  0.95667819     0.36700
C1582       C  0.70951816  0.67072551  0.90274807     0.36600
N1583       N  0.74126522  0.81205371  0.96871620    -0.43600
N1584       N  0.70474921  0.64633481  0.89219957    -0.43600
C1585       C  0.94324939  0.95067140  0.91853053    -0.00100
C1586       C  0.96445472  0.96133481  0.90000564    -0.11900
C1587       C  0.98978480  0.49773019  0.89658267     0.02200
C1588       C  0.49349499  0.52433151  0.91167548    -0.00100
C1589       C  0.47210568  0.51357795  0.93008520    -0.11900
C1590       C  0.94754431  0.97727167  0.93378506     0.02100
H1591       H  0.96088546  0.94129609  0.88806278     0.15100
H1592       H  0.47646612  0.53341835  0.94239419     0.15100
C1593       C  0.92844329  0.96759897  0.95398387     0.36700
C1594       C  0.01264545  0.50733945  0.87789069     0.36600
N1595       N  0.91332839  0.95983798  0.97020044    -0.43600
N1596       N  0.03103740  0.51490421  0.86294918    -0.43600
C1597       C  0.89248796  0.85903067  0.98465823    -0.00100
C1598       C  0.87302142  0.85469460  0.00346626    -0.11900
C1599       C  0.88747261  0.85332538  0.02352905     0.02200
C1600       C  0.92218862  0.85592069  0.02511487    -0.00100
C1601       C  0.94264005  0.86295422  0.00638448    -0.11900
C1602       C  0.92833532  0.86475474  0.98638848     0.02100
H1603       H  0.84598294  0.85116719  0.00245850     0.15100
H1604       H  0.96958442  0.86622999  0.00725027     0.15100
C1605       C  0.95142451  0.87309250  0.96784830     0.36700
C1606       C  0.86593637  0.84972884  0.04219096     0.36600
N1607       N  0.96994622  0.87990834  0.95300847    -0.43600
N1608       N  0.84849971  0.84688545  0.05705309    -0.43600
C1609       C  0.83567713  0.85524689  0.81545485    -0.00100
C1610       C  0.86761331  0.86132697  0.82549037    -0.11900
C1611       C  0.87076030  0.86296303  0.84782810     0.02200
C1612       C  0.84104376  0.85738738  0.86086002    -0.00100
C1613       C  0.80897638  0.85130278  0.85087831    -0.11900
C1614       C  0.80607517  0.85026321  0.82838643     0.02100
H1615       H  0.89089058  0.86655903  0.81582373     0.15100
H1616       H  0.78594218  0.84654030  0.86061780     0.15100
C1617       C  0.77214224  0.84339122  0.81901904     0.36700
C1618       C  0.90559477  0.87192784  0.85684017     0.36600
N1619       N  0.74495768  0.83795352  0.81153205    -0.43600
N1620       N  0.93359087  0.87909160  0.86386705    -0.43600
C1621       C  0.85468317  0.94803560  0.65166226    -0.00100
C1622       C  0.85180912  0.91349308  0.65307649    -0.11900
C1623       C  0.85121534  0.89753078  0.67287361     0.02200
C1624       C  0.85360906  0.91606229  0.69201926    -0.00100
C1625       C  0.85831546  0.95129062  0.69067864    -0.11900
C1626       C  0.85905126  0.96737659  0.67084347     0.02100
H1627       H  0.84896651  0.89820461  0.63856567     0.15100
H1628       H  0.86053638  0.96608052  0.70531650     0.15100
C1629       C  0.86237224  0.00279479  0.67079266     0.36700
C1630       C  0.84544152  0.86113406  0.67308839     0.36600
N1631       N  0.86505787  0.03121425  0.67082396    -0.43600
N1632       N  0.84062216  0.83188406  0.67326978    -0.43600
C1633       C  0.60623881  0.63449213  0.81002132    -0.00100
C1634       C  0.57241368  0.61801508  0.82009652    -0.11900
C1635       C  0.56949113  0.61204798  0.84233312     0.02200
C1636       C  0.60084384  0.62258121  0.85510611    -0.00100
C1637       C  0.63476385  0.63976656  0.84514079    -0.11900
C1638       C  0.63764866  0.64575213  0.82285550     0.02100
H1639       H  0.54803575  0.60790532  0.81042265     0.15100
H1640       H  0.65905064  0.64920134  0.85480695     0.15100
C1641       C  0.67328935  0.66379960  0.81344882     0.36700
C1642       C  0.53369374  0.59367298  0.85158959     0.36600
N1643       N  0.70191879  0.67845191  0.80599167    -0.43600
N1644       N  0.50498375  0.57883615  0.85894769    -0.43600
C1645       C  0.50633826  0.52751642  0.76048944    -0.00100
C1646       C  0.00161331  0.99447117  0.76737496    -0.11900
C1647       C  0.96694282  0.96469104  0.77013200     0.02200
C1648       C  0.93577393  0.96744748  0.76512072    -0.00100
C1649       C  0.94007984  0.00130948  0.76035512    -0.11900
C1650       C  0.97466828  0.53127486  0.75809785     0.02100
H1651       H  0.52508272  0.99151921  0.77034623     0.15100
H1652       H  0.91641527  0.00394727  0.75706870     0.15100
C1653       C  0.47635805  0.56533155  0.75400087     0.36700
C1654       C  0.96425640  0.93151139  0.77795326     0.36600
N1655       N  0.47727474  0.59245689  0.75045934    -0.43600
N1656       N  0.96214609  0.90500116  0.78429357    -0.43600
C1657       C  0.75339127  0.77967812  0.74387048    -0.00100
C1658       C  0.72585796  0.77106252  0.72883946    -0.11900
C1659       C  0.69796059  0.73513029  0.72611818     0.02200
C1660       C  0.69710574  0.70690106  0.73876882    -0.00100
C1661       C  0.72537973  0.71560043  0.75332500    -0.11900
C1662       C  0.75311181  0.75148133  0.75608402     0.02100
H1663       H  0.72649273  0.79229572  0.71894731     0.15100
H1664       H  0.72487335  0.69462365  0.76338785     0.15100
C1665       C  0.78014394  0.75891375  0.77239534     0.36700
C1666       C  0.67072318  0.72809862  0.71003808     0.36600
N1667       N  0.80164165  0.76480295  0.78554400    -0.43600
N1668       N  0.64894292  0.72266528  0.69716479    -0.43600
C1669       C  0.94076995  0.98604289  0.57703066    -0.00100
C1670       C  0.96977515  0.02214587  0.57604158    -0.11900
C1671       C  0.00583013  0.53011084  0.57498069     0.02200
C1672       C  0.51365267  0.50185584  0.57466597    -0.00100
C1673       C  0.98437913  0.96576481  0.57295735    -0.11900
C1674       C  0.94834498  0.95769073  0.57441184     0.02100
H1675       H  0.96459156  0.04461487  0.57705506     0.15100
H1676       H  0.48960101  0.94323094  0.57180793     0.15100
C1677       C  0.92025006  0.92018167  0.57443180     0.36700
C1678       C  0.53409364  0.56772478  0.57595263     0.36600
N1679       N  0.89784018  0.89007511  0.57447560    -0.43600
N1680       N  0.55660708  0.59776232  0.57668400    -0.43600
C1681       C  0.69967980  0.50227967  0.59409390    -0.00100
C1682       C  0.72758588  0.52132998  0.60886822    -0.11900
C1683       C  0.75467005  0.51203154  0.61203338     0.02200
C1684       C  0.75437539  0.98354861  0.59987806    -0.00100
C1685       C  0.72589538  0.96402677  0.58553183    -0.11900
C1686       C  0.69860136  0.97287006  0.58264330     0.02100
H1687       H  0.72755063  0.54261463  0.61844347     0.15100
H1688       H  0.72565266  0.94266612  0.57588467     0.15100
C1689       C  0.66999323  0.95138442  0.56756625     0.36700
C1690       C  0.78178440  0.53152173  0.62828128     0.36600
N1691       N  0.64707059  0.93364544  0.55563025    -0.43600
N1692       N  0.80339628  0.54706975  0.64136418    -0.43600
C1693       C  0.59977239  0.54028022  0.64683400    -0.00100
C1694       C  0.60039093  0.57383892  0.64774709    -0.11900
C1695       C  0.59918141  0.58979450  0.66730173     0.02200
C1696       C  0.59742881  0.57235622  0.68679162    -0.00100
C1697       C  0.59524968  0.53807954  0.68583551    -0.11900
C1698       C  0.59622135  0.52200772  0.66624647     0.02100
H1699       H  0.60255796  0.58825078  0.63300787     0.15100
H1700       H  0.59350486  0.52391380  0.70060800     0.15100
C1701       C  0.59498876  0.98755911  0.66671718     0.36700
C1702       C  0.60189182  0.62494550  0.66685055     0.36600
N1703       N  0.59427367  0.96003100  0.66710218    -0.43600
N1704       N  0.60411577  0.65315283  0.66634383    -0.43600
C1705       C  0.83997530  0.99310834  0.52754405    -0.00100
C1706       C  0.82643402  0.96139739  0.51475590    -0.11900
C1707       C  0.82911784  0.96267427  0.49231266     0.02200
C1708       C  0.84509724  0.99627504  0.48177954    -0.00100
C1709       C  0.85691183  0.52792532  0.49449233    -0.11900
C1710       C  0.85489114  0.52668288  0.51698515     0.02100
H1711       H  0.81473393  0.93507270  0.52229299     0.15100
H1712       H  0.86894273  0.55423555  0.48690951     0.15100
C1713       C  0.86909030  0.56034509  0.52865796     0.36700
C1714       C  0.81675661  0.92910437  0.48078973     0.36600
N1715       N  0.88059827  0.58739713  0.53796560    -0.43600
N1716       N  0.80691312  0.90209765  0.47166654    -0.43600
C1717       C  0.91486053  0.54222421  0.35878996    -0.00100
C1718       C  0.94149711  0.57916711  0.35620782    -0.11900
C1719       C  0.95765136  0.59346370  0.33625629     0.02200
C1720       C  0.94763037  0.57085981  0.31812692    -0.00100
C1721       C  0.92238621  0.53376511  0.32076063    -0.11900
C1722       C  0.90620848  0.51934187  0.34069951     0.02100
H1723       H  0.94930098  0.59754897  0.36975857     0.15100
H1724       H  0.91427002  0.51603168  0.30686378     0.15100
C1725       C  0.87991882  0.98129261  0.34177360     0.36700
C1726       C  0.98234916  0.63183853  0.33449492     0.36600
N1727       N  0.85887389  0.95076529  0.34256480    -0.43600
N1728       N  0.00201975  0.66263098  0.33306615    -0.43600
C1729       C  0.97220799  0.61662398  0.14556582    -0.00100
C1730       C  0.99991171  0.64568307  0.15735100    -0.11900
C1731       C  0.00168982  0.64525036  0.17991197     0.02200
C1732       C  0.97538757  0.61525236  0.19137139    -0.00100
C1733       C  0.94704592  0.58680562  0.17960084    -0.11900
C1734       C  0.94528899  0.58717443  0.15710129     0.02100
H1735       H  0.52091935  0.66870643  0.14884794     0.15100
H1736       H  0.92637553  0.56340554  0.18801696     0.15100
C1737       C  0.91692722  0.55583794  0.14630442     0.36700
C1738       C  0.53024808  0.67624206  0.19086738     0.36600
N1739       N  0.89423956  0.53064017  0.13768155    -0.43600
N1740       N  0.55307942  0.70116492  0.19961370    -0.43600
C1741       C  0.62545236  0.00177239  0.47854281    -0.00100
C1742       C  0.60079752  0.00995524  0.48832870    -0.11900
C1743       C  0.59510495  0.50630764  0.51047110     0.02200
C1744       C  0.61396447  0.99367014  0.52345178    -0.00100
C1745       C  0.63953008  0.98654189  0.51374426    -0.11900
C1746       C  0.64503934  0.99007307  0.49144036     0.02100
H1747       H  0.58472844  0.51792829  0.47847624     0.15100
H1748       H  0.65594193  0.97928540  0.52358705     0.15100
C1749       C  0.67135759  0.98216853  0.48203662     0.36700
C1750       C  0.56928094  0.51520822  0.51957187     0.36600
N1751       N  0.69256563  0.97609299  0.47440546    -0.43600
N1752       N  0.54855987  0.52253236  0.52658673    -0.43600
C1753       C  0.70540836  0.99457353  0.40834844    -0.00100
C1754       C  0.73149947  0.02445630  0.42023356    -0.11900
C1755       C  0.76839147  0.53451872  0.42002891     0.02200
C1756       C  0.77993942  0.51450787  0.40751572    -0.00100
C1757       C  0.75388265  0.98585664  0.39457194    -0.11900
C1758       C  0.71709982  0.97598199  0.39488836     0.02100
H1759       H  0.72284590  0.53969247  0.43033729     0.15100
H1760       H  0.76214544  0.97044920  0.38449604     0.15100
C1761       C  0.69212552  0.94766811  0.38072236     0.36700
C1762       C  0.79327301  0.56425719  0.43341684     0.36600
N1763       N  0.67211030  0.92525748  0.36920856    -0.43600
N1764       N  0.81317336  0.58823833  0.44409361    -0.43600
C1765       C  0.51296328  0.97862429  0.43132626    -0.00100
C1766       C  0.01914574  0.01286937  0.43850331    -0.11900
C1767       C  0.99140677  0.02160788  0.43869290     0.02200
C1768       C  0.95636280  0.49575365  0.43171049    -0.00100
C1769       C  0.94972772  0.96035439  0.42690174    -0.11900
C1770       C  0.97755903  0.95179429  0.42655922     0.02100
H1771       H  0.04636905  0.03361664  0.44285085     0.15100
H1772       H  0.92280456  0.43939656  0.42204503     0.15100
C1773       C  0.46936636  0.91605130  0.41951735     0.36700
C1774       C  0.00006042  0.05746836  0.44543810     0.36600
N1775       N  0.46279926  0.88750911  0.41386812    -0.43600
N1776       N  0.00715580  0.08623997  0.45092564    -0.43600
C1777       C  0.98703051  0.76983598  0.26253807    -0.00100
C1778       C  0.45478025  0.74245423  0.25303460    -0.11900
C1779       C  0.94573425  0.70591635  0.25358604     0.02200
C1780       C  0.96899366  0.69605608  0.26399167    -0.00100
C1781       C  0.00006447  0.72340775  0.27459238    -0.11900
C1782       C  0.00931242  0.75986591  0.27378870     0.02100
H1783       H  0.43702801  0.74981351  0.24461110     0.15100
H1784       H  0.01800647  0.71645489  0.28314240     0.15100
C1785       C  0.04123639  0.78635211  0.28508201     0.36700
C1786       C  0.41343710  0.67954818  0.24254127     0.36600
N1787       N  0.06672794  0.80760786  0.29419769    -0.43600
N1788       N  0.38749485  0.65844942  0.23371113    -0.43600
C1789       C  0.98142744  0.51505294  0.25063693    -0.00100
C1790       C  0.97299647  0.99341382  0.23227358    -0.11900
C1791       C  0.98498908  0.96819685  0.23025830     0.02200
C1792       C  0.00644987  0.96508743  0.24656631    -0.00100
C1793       C  0.01570946  0.98745237  0.26461190    -0.11900
C1794       C  0.00289133  0.51182039  0.26696185     0.02100
H1795       H  0.95766632  0.49661277  0.21936457     0.15100
H1796       H  0.03045584  0.98379456  0.27770099     0.15100
C1797       C  0.01114781  0.53238248  0.28669163     0.36700
C1798       C  0.97408245  0.94483471  0.21165480     0.36600
N1799       N  0.01768257  0.54865471  0.30254404    -0.43600
N1800       N  0.96538163  0.92601586  0.19679274    -0.43600
C1801       C  0.56463610  0.94204428  0.35635369    -0.00100
C1802       C  0.53039802  0.91017588  0.35542386    -0.11900
C1803       C  0.51443760  0.89314098  0.33576771     0.02200
C1804       C  0.53286820  0.90770418  0.31638671    -0.00100
C1805       C  0.56676295  0.93993483  0.31738525    -0.11900
C1806       C  0.58260062  0.95696931  0.33695297     0.02100
H1807       H  0.51620811  0.89813633  0.37021506     0.15100
H1808       H  0.58147052  0.95174876  0.30269921     0.15100
C1809       C  0.61841138  0.98826455  0.33674129     0.36700
C1810       C  0.48024781  0.85981418  0.33604983     0.36600
N1811       N  0.14746640  0.01308943  0.33663797    -0.43600
N1812       N  0.45288387  0.83301645  0.33628475    -0.43600
C1813       C  0.98188109  0.84473082  0.14627497    -0.00100
C1814       C  0.95349917  0.82012613  0.15963692    -0.11900
C1815       C  0.95531391  0.82365074  0.18205186     0.02200
C1816       C  0.98641325  0.85181364  0.19182784    -0.00100
C1817       C  0.51516909  0.87582468  0.17856245    -0.11900
C1818       C  0.01316671  0.87276609  0.15611200     0.02100
H1819       H  0.92908399  0.79833326  0.15253115     0.15100
H1820       H  0.53928246  0.89790362  0.18575483     0.15100
C1821       C  0.54254833  0.90012395  0.14370495     0.36700
C1822       C  0.92500603  0.79778744  0.19455432     0.36600
N1823       N  0.56609463  0.92214842  0.13377912    -0.43600
N1824       N  0.90066038  0.77711514  0.20457661    -0.43600
loop_ 
_geom_bond_atom_site_label_1 
_geom_bond_atom_site_label_2 
_geom_bond_distance 
_geom_bond_site_symmetry_2 
_ccdc_geom_bond_type 
O1           Ni9   1.948       .  S
O1           C11   1.289       .  A
O2           Ni9   1.953       .  S
O2           C12   1.291   1_455  A
O3           Ni9   1.889       .  S
O3          C925   1.273   1_455  A
O4           Ni9   1.892       .  S
O4           C14   1.274       .  A
O5          Ni10   1.969       .  S
O5          C926   1.294       .  A
O6          Ni10   1.956       .  S
O6           C13   1.292       .  A
O7          Ni10   1.885       .  S
O7          C924   1.271       .  A
O8          Ni10   1.871       .  S
O8          C923   1.268       .  A
Ni9        Ni922   2.386   1_455  S
Ni10       Ni921   2.386       .  S
C11         O920   1.268   1_455  A
C11        C1336   1.463       .  S
C12         O919   1.271       .  A
C12        C1321   1.483       .  S
C13         O915   1.273       .  A
C13         C448   1.493       .  S
C14         O917   1.294   1_455  A
C14         C436   1.502       .  S
O15         Ni23   1.958       .  S
O15          C25   1.292       .  A
O16         Ni23   1.958       .  S
O16          C26   1.292       .  A
O17         Ni23   1.885       .  S
O17          C27   1.271       .  A
O18         Ni23   1.899       .  S
O18          C28   1.274       .  A
O19         Ni24   1.963       .  S
O19          C28   1.293       .  A
O20         Ni24   1.953       .  S
O20          C27   1.290       .  A
O21         Ni24   1.888       .  S
O21          C26   1.271       .  A
O22         Ni24   1.870       .  S
O22          C25   1.270       .  A
Ni23        Ni24   2.386       .  S
C25         C397   1.480       .  S
C26         C385   1.485       .  S
C27         C373   1.475       .  S
C28         C433   1.499       .  S
O29         Ni37   1.958       .  S
O29          C39   1.292       .  A
O30         Ni37   1.965       .  S
O30          C40   1.294       .  A
O31         Ni37   1.886       .  S
O31          C41   1.272       .  A
O32         Ni37   1.888       .  S
O32          C42   1.272       .  A
O33         Ni38   1.971       .  S
O33          C42   1.294       .  A
O34         Ni38   1.972       .  S
O34          C41   1.295       .  A
O35         Ni38   1.870       .  S
O35          C40   1.269       .  A
O36         Ni38   1.865       .  S
O36          C39   1.267       .  A
Ni37        Ni38   2.384       .  S
C39         C421   1.472       .  S
C40         C412   1.493       .  S
C41         C364   1.501       .  S
C42         C352   1.494       .  S
O43         Ni51   1.964       .  S
O43          C53   1.294       .  A
O44         Ni51   1.966       .  S
O44          C54   1.294       .  A
O45         Ni51   1.880       .  S
O45          C55   1.271       .  A
O46         Ni51   1.892       .  S
O46          C56   1.273       .  A
O47        Ni508   1.969       .  S
O47          C56   1.295   1_565  A
O48         Ni52   1.965       .  S
O48         C511   1.294       .  A
O49         Ni52   1.878       .  S
O49         C510   1.270       .  A
O50         Ni52   1.868       .  S
O50         C509   1.268       .  A
Ni51       Ni508   2.376   1_545  S
Ni52        O503   1.968       .  S
Ni52       Ni507   2.376       .  S
C53         O506   1.268   1_545  A
C53         C400   1.495   1_545  S
C54         O505   1.270   1_545  A
C54         C388   1.496       .  S
C55         O504   1.294   1_545  A
C55         C796   1.502   1_545  S
C56         C349   1.511       .  S
O57         Ni65   1.953       .  S
O57          C67   1.292       .  A
O58         Ni65   1.958       .  S
O58          C68   1.292       .  A
O59         Ni65   1.879       .  S
O59          C69   1.269   1_545  A
O60         Ni65   1.890       .  S
O60          C70   1.273       .  A
O61        Ni522   1.970       .  S
O61          C70   1.295   1_565  A
O62         Ni66   1.965       .  S
O62         C525   1.293       .  A
O63         Ni66   1.872       .  S
O63         C524   1.268       .  A
O64         Ni66   1.858       .  S
O64         C523   1.267       .  A
Ni65       Ni522   2.385   1_545  S
Ni66        O517   1.969       .  S
Ni66       Ni521   2.385       .  S
C67         O520   1.267   1_545  A
C67         C304   1.483       .  S
C68         O519   1.268   1_545  A
C68         C313   1.477       .  S
C69         O518   1.293       .  A
C69         C832   1.479       .  S
C70         C325   1.503       .  S
O71         Ni79   1.959       .  S
O71          C81   1.293       .  A
O72         Ni79   1.958       .  S
O72          C82   1.293       .  A
O73         Ni79   1.882       .  S
O73          C83   1.270       .  A
O74         Ni79   1.897       .  S
O74          C84   1.274       .  A
O75         Ni80   1.967       .  S
O75          C84   1.294       .  A
O76         Ni80   1.967       .  S
O76          C83   1.294       .  A
O77         Ni80   1.881       .  S
O77          C82   1.270       .  A
O78         Ni80   1.865       .  S
O78          C81   1.266       .  A
Ni79        Ni80   2.381       .  S
C81         C277   1.491       .  S
C82         C292   1.490       .  S
C83         C265   1.487       .  S
C84         C328   1.503       .  S
O85         Ni93   1.951       .  S
O85          C95   1.291       .  A
O86         Ni93   1.952       .  S
O86          C96   1.292       .  A
O87         Ni93   1.877       .  S
O87          C97   1.270       .  A
O88         Ni93   1.888       .  S
O88          C98   1.273       .  A
O89         Ni94   1.965       .  S
O89          C98   1.293       .  A
O90         Ni94   1.966       .  S
O90          C97   1.295       .  A
O91         Ni94   1.877       .  S
O91          C96   1.269       .  A
O92         Ni94   1.861       .  S
O92          C95   1.268       .  A
Ni93        Ni94   2.380       .  S
C95         C301   1.484       .  S
C96         C316   1.483       .  S
C97         C337   1.502       .  S
C98         C253   1.500       .  S
O99        Ni107   1.952       .  S
O99         C109   1.291       .  A
O100       Ni107   1.956       .  S
O100        C110   1.291       .  A
O101       Ni107   1.886       .  S
O101        C111   1.271       .  A
O102       Ni107   1.894       .  S
O102        C112   1.274       .  A
O103       Ni108   1.957       .  S
O103        C112   1.292       .  A
O104       Ni108   1.950       .  S
O104        C111   1.291       .  A
O105       Ni108   1.884       .  S
O105        C110   1.271       .  A
O106       Ni108   1.870       .  S
O106        C109   1.269       .  A
Ni107      Ni108   2.386       .  S
C109        C280   1.480       .  S
C110        C289   1.481       .  S
C111        C241   1.484       .  S
C112        C256   1.493       .  S
O113       Ni121   1.958       .  S
O113        C123   1.291       .  A
O114       Ni121   1.960       .  S
O114        C124   1.293       .  A
O115       Ni121   1.875       .  S
O115        C125   1.270       .  A
O116       Ni121   1.883       .  S
O116        C126   1.271       .  A
O117       Ni122   1.964       .  S
O117        C126   1.293       .  A
O118       Ni122   1.962       .  S
O118        C125   1.293       .  A
O119       Ni122   1.881       .  S
O119        C124   1.271       .  A
O120       Ni122   1.864       .  S
O120        C123   1.268       .  A
Ni121      Ni122   2.384       .  S
C123        C217   1.473       .  S
C124        C205   1.495       .  S
C125        C244   1.486       .  S
C126        C229   1.492       .  S
O127       Ni135   1.953       .  S
O127        C137   1.291       .  A
O128       Ni135   1.955       .  S
O128        C138   1.292       .  A
O129       Ni135   1.882       .  S
O129        C139   1.272       .  A
O130       Ni135   1.893       .  S
O130        C140   1.273       .  A
O131       Ni136   1.961       .  S
O131        C140   1.293       .  A
O132       Ni136   1.957       .  S
O132        C139   1.292       .  A
O133       Ni136   1.883       .  S
O133        C138   1.272       .  A
O134       Ni136   1.863       .  S
O134        C137   1.269       .  A
Ni135      Ni136   2.381       .  S
C137        C193   1.482       .  S
C138        C184   1.492       .  S
C139        C445   1.496       .  S
C140        C232   1.500       .  S
O141       Ni149   1.950       .  S
O141        C151   1.290       .  A
O142       Ni149   1.956       .  S
O142        C152   1.292       .  A
O143       Ni149   1.889       .  S
O143        C153   1.271       .  A
O144       Ni149   1.891       .  S
O144        C154   1.273       .  A
O145       Ni150   1.979       .  S
O145        C154   1.296       .  A
O146       Ni150   1.965       .  S
O146        C153   1.293       .  A
O147       Ni150   1.887       .  S
O147        C152   1.271       .  A
O148       Ni150   1.868       .  S
O148        C151   1.267       .  A
Ni149      Ni150   2.384       .  S
C151        C220   1.464   1_455  S
C152        C208   1.486       .  S
C153        C268   1.488       .  S
C154        C169   1.509       .  S
O155       Ni163   1.954       .  S
O155        C165   1.292   1_455  A
O156       Ni163   1.958       .  S
O156        C166   1.293   1_455  A
O157       Ni163   1.887       .  S
O157       C1079   1.271   1_455  A
O158       Ni163   1.900       .  S
O158        C168   1.274       .  A
O159       Ni164   1.971       .  S
O159       C1080   1.295       .  A
O160       Ni164   1.968       .  S
O160        C167   1.295       .  A
O161       Ni164   1.878       .  S
O161       C1078   1.270       .  A
O162       Ni164   1.863       .  S
O162       C1077   1.268       .  A
Ni163     Ni1076   2.379   1_455  S
Ni164     Ni1075   2.379       .  S
C165       O1074   1.268       .  A
C165       C1108   1.487       .  S
C166       O1073   1.270       .  A
C166       C1093   1.499       .  S
C167       O1069   1.271       .  A
C167        C361   1.499       .  S
C168       O1071   1.295   1_455  A
C168        C172   1.506       .  S
C169        C170   1.402       .  A
C169        C174   1.428       .  A
C170        C171   1.414   1_556  A
C170        H175   1.084       .  S
C171        C172   1.426       .  A
C171        C178   1.444       .  S
C172        C173   1.399       .  A
C173        C174   1.409   1_554  A
C173       H1088   1.085   1_455  S
C174       C1089   1.445   1_455  S
H176       C1085   1.085       .  S
C177       C1086   1.445       .  S
C177        N179   1.157       .  T
C178        N180   1.157       .  T
C181       C1078   1.499       .  S
C181        C182   1.419       .  A
C181        C186   1.409       .  A
C182        C183   1.403       .  A
C182        H187   1.084       .  S
C183        C184   1.405       .  A
C183        C190   1.444       .  S
C184        C185   1.415       .  A
C185        C186   1.403       .  A
C185        H188   1.084       .  S
C186       C1101   1.443       .  S
C189       C1098   1.443       .  S
C189        N191   1.157       .  T
C190        N192   1.157       .  T
C193        C194   1.415       .  A
C193        C198   1.403       .  A
C194        C651   1.398       .  A
C194        H199   1.085       .  S
C195        C196   1.404       .  A
C195        C650   1.398   1_545  A
C195       C1114   1.443       .  S
C196       C1077   1.487       .  S
C196        C197   1.418   1_545  A
C197        C654   1.398       .  A
C197        H200   1.084       .  S
C198        C653   1.398       .  A
C198        C201   1.443       .  S
C201        N203   1.157       .  T
C202       C1107   1.443       .  S
C202        N204   1.157       .  T
C205        C206   1.401       .  A
C205        C210   1.425       .  A
C206        C207   1.405       .  A
C206        H211   1.085       .  S
C207        C208   1.421       .  A
C207        C214   1.445       .  S
C208        C209   1.396       .  A
C209        C210   1.403       .  A
C209        H212   1.085       .  S
C210        C213   1.445       .  S
C213        N215   1.157       .  T
C214        N216   1.157       .  T
C217        C218   1.399       .  A
C217        C222   1.418       .  A
C218        C675   1.402       .  A
C218        H223   1.084       .  S
C219        C674   1.402       .  A
C219       C1132   1.416   1_565  A
C219        C226   1.444   1_565  S
C220        C221   1.396       .  A
C220       C1131   1.416   1_545  A
C221       C1590   1.396   1_545  A
C221        H224   1.085       .  S
C222       C1589   1.396       .  A
C222        C225   1.447       .  S
C225        N227   1.157       .  T
C226        N228   1.157       .  T
C229        C230   1.396   1_556  A
C229        C234   1.423       .  A
C230        C231   1.407       .  A
C230        H235   1.085       .  S
C231        C232   1.428       .  A
C231        C238   1.444       .  S
C232        C233   1.400       .  A
C233        C234   1.405   1_554  A
C233        H236   1.085       .  S
C234        C237   1.445       .  S
C237        N239   1.157       .  T
C238        N240   1.157       .  T
C241        C242   1.396       .  A
C241        C246   1.422       .  A
C242        C243   1.398       .  A
C242        H247   1.085       .  S
C243        C244   1.422       .  A
C243        C250   1.446       .  S
C244        C245   1.400       .  A
C245        C246   1.407       .  A
C245        H248   1.085       .  S
C246        C249   1.444       .  S
C249        N251   1.157       .  T
C250        N252   1.157       .  T
C253        C254   1.417       .  A
C253        C258   1.410       .  A
C254        C255   1.405       .  A
C254        H259   1.085       .  S
C255        C256   1.405       .  A
C255        C262   1.443       .  S
C256        C257   1.414       .  A
C257        C258   1.408       .  A
C257        H260   1.085       .  S
C258        C261   1.443       .  S
C261        N263   1.157       .  T
C262        N264   1.157       .  T
C265        C266   1.401       .  A
C265        C270   1.419       .  A
C266        C267   1.405       .  A
C266        H271   1.085       .  S
C267        C268   1.419       .  A
C267        C274   1.445       .  S
C268        C269   1.401       .  A
C269        C270   1.408       .  A
C269        H272   1.084       .  S
C270        C273   1.443       .  S
C273        N275   1.157       .  T
C274        N276   1.157       .  T
C277       C1646   1.399   1_545  A
C277       C1194   1.431   1_455  A
C278        C279   1.400       .  A
C278       C1645   1.399       .  A
C278       H1195   1.085       .  S
C279        C280   1.421       .  A
C279        C286   1.445       .  S
C280        C281   1.393       .  A
C281        C738   1.397       .  A
C281        H284   1.085       .  S
C282       C1189   1.431       .  A
C282        C737   1.397       .  A
C282       C1197   1.446       .  S
H283       C1190   1.085       .  S
C285       C1194   1.446       .  S
C285        N287   1.158       .  T
C286        N288   1.157       .  T
C289        C290   1.397       .  A
C289        C294   1.418       .  A
C290        C291   1.405       .  A
C290        H295   1.085       .  S
C291        C292   1.424       .  A
C291        C298   1.444       .  S
C292        C293   1.400       .  A
C293        C294   1.402       .  A
C293        H296   1.084       .  S
C294        C297   1.445       .  S
C297        N299   1.157       .  T
C298        N300   1.157       .  T
C301        C302   1.417       .  A
C301        C306   1.404       .  A
C302        C759   1.396       .  A
C302        H307   1.084       .  S
C303        C758   1.396       .  A
C303       C1216   1.402       .  A
C303       C1222   1.444       .  S
C304       C1215   1.402       .  A
C304       C1673   1.417   1_445  A
C305        C306   1.397       .  A
C305       C1672   1.417       .  A
C305       H1220   1.084       .  S
C306        C309   1.444       .  S
H308       C1217   1.084       .  S
C309        N311   1.157       .  T
C310       C1215   1.444       .  S
C310        N312   1.157       .  T
C313        C314   1.397       .  A
C313        C774   1.419   1_545  A
C314        C315   1.405       .  A
C314        H319   1.085       .  S
C315        C772   1.423   1_545  A
C315        C322   1.445       .  S
C316        C317   1.397       .  A
C316        C771   1.423       .  A
C317        C318   1.398       .  A
C317        H320   1.085       .  S
C318        C769   1.419       .  A
C318        C321   1.445       .  S
C321        N323   1.157       .  T
C322        N324   1.157       .  T
C325        C326   1.417       .  A
C325        C330   1.408       .  A
C326        C327   1.408       .  A
C326        H331   1.085       .  S
C327        C328   1.409       .  A
C327        C334   1.443       .  S
C328        C329   1.416       .  A
C329        C330   1.410       .  A
C329        H332   1.085       .  S
C330        C789   1.442   1_545  S
C333        C786   1.442       .  S
C333        N335   1.157       .  T
C334        N336   1.157       .  T
C337        C338   1.419       .  A
C337        C798   1.408       .  A
C338        C339   1.404       .  A
C338        H343   1.084       .  S
C339        C340   1.408       .  A
C339        C346   1.444       .  S
C340        C511   1.502       .  S
C340        C797   1.419       .  A
C341        C342   1.405       .  A
C341        C796   1.419   1_545  A
C341        H344   1.084       .  S
C342        C793   1.408   1_545  A
C342        C345   1.443       .  S
C345        N347   1.157       .  T
C346        N348   1.157       .  T
C349        C350   1.421       .  A
C349        C354   1.413       .  A
C350        C351   1.409       .  A
C350        H355   1.084       .  S
C351        C352   1.405       .  A
C351        C358   1.444       .  S
C352        C353   1.412       .  A
C353        C354   1.409       .  A
C353        H356   1.085       .  S
C354        C813   1.443   1_545  S
C357        C810   1.443       .  S
C357        N359   1.157       .  T
C358        N360   1.157       .  T
C361        C362   1.416       .  A
C361        C366   1.409       .  A
C362        C363   1.410       .  A
C362       H1279   1.085       .  S
C363        C364   1.409       .  A
C363       C1282   1.443       .  S
C364        C365   1.415       .  A
C365        C366   1.406       .  A
C365        H368   1.085       .  S
C366        C369   1.444       .  S
H367       C1274   1.085   1_455  S
C369        N371   1.157       .  T
C370       C1275   1.443       .  S
C370        N372   1.157       .  T
C373        C374   1.399       .  A
C373        C378   1.414       .  A
C374        C831   1.401       .  A
C374        H835   1.085       .  S
C375        C830   1.401       .  A
C375        C832   1.416   1_545  A
C375        C382   1.444       .  S
C376        C525   1.479       .  S
C376        C377   1.404       .  A
C376        C831   1.416       .  A
C377        C378   1.407       .  A
C377        H380   1.083       .  S
C378        C381   1.444       .  S
H379        C830   1.085       .  S
C381        N383   1.157       .  T
C382        N384   1.157       .  T
C385        C386   1.411       .  A
C385        C390   1.403       .  A
C386        C843   1.407       .  A
C386        H847   1.085       .  S
C387        C388   1.411       .  A
C387        C842   1.407       .  A
C387        C394   1.443       .  S
C388        C845   1.417   1_545  A
C389        C390   1.404       .  A
C389        C844   1.417       .  A
C389        H392   1.085       .  S
C390        C393   1.443       .  S
H391        C842   1.085       .  S
C393        N395   1.157       .  T
C394        N396   1.157       .  T
C397       C1310   1.413       .  A
C397       C1314   1.401   1_455  A
C398        C399   1.402       .  A
C398       C1309   1.413       .  A
C398        H403   1.085       .  S
C399        C856   1.408       .  A
C399        C406   1.443       .  S
C400        C855   1.408   1_565  A
C400        C857   1.420       .  A
C401        C402   1.400       .  A
C401        C856   1.420       .  A
C401        H860   1.084       .  S
C402       C1309   1.401       .  A
C402       C1317   1.444       .  S
H404        C857   1.084       .  S
C405       C1314   1.444       .  S
C405        N407   1.157       .  T
C406        N408   1.157       .  T
C409        C924   1.483       .  S
C409        C414   1.402       .  A
C409       C1322   1.412       .  A
C410       C1321   1.412       .  A
C410       C1323   1.406       .  A
C410        H415   1.085       .  S
C411        C412   1.409       .  A
C411       C1322   1.406       .  A
C411       C1330   1.443       .  S
C412        C413   1.416       .  A
C413        C414   1.400       .  A
C413        H416   1.085       .  S
C414        C417   1.444       .  S
C417        N419   1.157       .  T
C418       C1323   1.443       .  S
C418        N420   1.157       .  T
C421        C426   1.418       .  A
C421        C878   1.399   1_545  A
C422        C423   1.404       .  A
C422        C877   1.400       .  A
C422        H883   1.084       .  S
C423        C424   1.414       .  A
C423        C430   1.444       .  S
C424        C923   1.463       .  S
C424        C425   1.396       .  A
C425        C882   1.396       .  A
C425        H428   1.086       .  S
C426        C881   1.396   1_545  A
C426        C429   1.447       .  S
H427        C878   1.084       .  S
C429        N431   1.157       .  T
C430        N432   1.157       .  T
C433        C434   1.416       .  A
C433        C438   1.407       .  A
C434        C435   1.412       .  A
C434        H439   1.085       .  S
C435        C436   1.409       .  A
C435        C442   1.443   1_455  S
C436        C437   1.415       .  A
C437        C438   1.406       .  A
C437        H440   1.085       .  S
C438        C441   1.443       .  S
C441       N1355   1.157       .  T
C442        N444   1.157       .  T
N443       C1353   1.157       .  T
C445        C446   1.416       .  A
C445        C450   1.410       .  A
C446        C447   1.404       .  A
C446        H451   1.084       .  S
C447        C448   1.407       .  A
C447        C454   1.443       .  S
C448       C1361   1.414       .  A
C449       C1360   1.413   1_455  A
C449       C1362   1.405       .  A
C449        H452   1.085       .  S
C450       C1361   1.405       .  A
C450       C1365   1.444       .  S
C453       C1362   1.444       .  S
C453        N455   1.157       .  T
C454        N456   1.157       .  T
O457       Ni465   1.948       .  S
O457        C467   1.289       .  A
O458       Ni465   1.953       .  S
O458        C468   1.291   1_455  A
O459       Ni465   1.889       .  S
O459       C1381   1.273   1_455  A
O460       Ni465   1.892       .  S
O460        C470   1.274       .  A
O461       Ni466   1.968       .  S
O461       C1382   1.294       .  A
O462       Ni466   1.956       .  S
O462        C469   1.292       .  A
O463       Ni466   1.885       .  S
O463       C1380   1.271       .  A
O464       Ni466   1.871       .  S
O464       C1379   1.268       .  A
Ni465     Ni1378   2.386   1_455  S
Ni466     Ni1377   2.386       .  S
C467       O1376   1.268   1_455  A
C467       C1792   1.463       .  S
C468       O1375   1.271       .  A
C468       C1777   1.483       .  S
C469       O1371   1.273       .  A
C469        C904   1.493       .  S
C470       O1373   1.294   1_455  A
C470        C892   1.502       .  S
O471       Ni479   1.958       .  S
O471        C481   1.292       .  A
O472       Ni479   1.958       .  S
O472        C482   1.292       .  A
O473       Ni479   1.885       .  S
O473        C483   1.271       .  A
O474       Ni479   1.899       .  S
O474        C484   1.274       .  A
O475       Ni480   1.963   1_565  S
O475        C484   1.293       .  A
O476       Ni480   1.953       .  S
O476        C483   1.290   1_545  A
O477       Ni480   1.888       .  S
O477        C482   1.271   1_545  A
O478       Ni480   1.870       .  S
O478        C481   1.270   1_545  A
Ni479      Ni480   2.386   1_565  S
C481        C853   1.480       .  S
C482        C841   1.485       .  S
C483        C829   1.475   1_565  S
C484        C889   1.499       .  S
O485       Ni493   1.958       .  S
O485        C495   1.292       .  A
O486       Ni493   1.965       .  S
O486        C496   1.294       .  A
O487       Ni493   1.886       .  S
O487        C497   1.272       .  A
O488       Ni493   1.888       .  S
O488        C498   1.272       .  A
O489       Ni494   1.970       .  S
O489        C498   1.294       .  A
O490       Ni494   1.971       .  S
O490        C497   1.295       .  A
O491       Ni494   1.871       .  S
O491        C496   1.269       .  A
O492       Ni494   1.866       .  S
O492        C495   1.267       .  A
Ni493      Ni494   2.384       .  S
C495        C877   1.472       .  S
C496        C868   1.493       .  S
C497        C820   1.501       .  S
C498        C808   1.494       .  S
O499       Ni507   1.964       .  S
O499        C509   1.294       .  A
O500       Ni507   1.966       .  S
O500        C510   1.294       .  A
O501       Ni507   1.880       .  S
O501        C511   1.271       .  A
O502       Ni507   1.892       .  S
O502        C512   1.273       .  A
O503        C512   1.295       .  A
O504       Ni508   1.965       .  S
O505       Ni508   1.878       .  S
O506       Ni508   1.868       .  S
C509        C856   1.496       .  S
C510        C844   1.496       .  S
C512        C805   1.511       .  S
O513       Ni521   1.953       .  S
O513        C523   1.292       .  A
O514       Ni521   1.958       .  S
O514        C524   1.292       .  A
O515       Ni521   1.879       .  S
O515        C525   1.269       .  A
O516       Ni521   1.890       .  S
O516        C526   1.273       .  A
O517        C526   1.295       .  A
O518       Ni522   1.965       .  S
O519       Ni522   1.872       .  S
O520       Ni522   1.858       .  S
C523        C760   1.483       .  S
C524        C769   1.477       .  S
C526        C781   1.503       .  S
O527       Ni535   1.959       .  S
O527        C537   1.293       .  A
O528       Ni535   1.958       .  S
O528        C538   1.293       .  A
O529       Ni535   1.882       .  S
O529        C539   1.270       .  A
O530       Ni535   1.897       .  S
O530        C540   1.274       .  A
O531       Ni536   1.966       .  S
O531        C540   1.294       .  A
O532       Ni536   1.967       .  S
O532        C539   1.294       .  A
O533       Ni536   1.881       .  S
O533        C538   1.270       .  A
O534       Ni536   1.864       .  S
O534        C537   1.266       .  A
Ni535      Ni536   2.381       .  S
C537        C733   1.491       .  S
C538        C748   1.490       .  S
C539        C721   1.487       .  S
C540        C784   1.503       .  S
O541       Ni549   1.951       .  S
O541        C551   1.291       .  A
O542       Ni549   1.951       .  S
O542        C552   1.292       .  A
O543       Ni549   1.877       .  S
O543        C553   1.270       .  A
O544       Ni549   1.888       .  S
O544        C554   1.273       .  A
O545       Ni550   1.965   1_565  S
O545        C554   1.293       .  A
O546       Ni550   1.966       .  S
O546        C553   1.295   1_545  A
O547       Ni550   1.876       .  S
O547        C552   1.269   1_545  A
O548       Ni550   1.861       .  S
O548        C551   1.268   1_545  A
Ni549      Ni550   2.380   1_565  S
C551        C757   1.484       .  S
C552        C772   1.483       .  S
C553        C793   1.502       .  S
C554        C709   1.500       .  S
O555       Ni563   1.951       .  S
O555        C565   1.291       .  A
O556       Ni563   1.955       .  S
O556        C566   1.291       .  A
O557       Ni563   1.886       .  S
O557        C567   1.271       .  A
O558       Ni563   1.894       .  S
O558        C568   1.274       .  A
O559       Ni564   1.957       .  S
O559        C568   1.292       .  A
O560       Ni564   1.950       .  S
O560        C567   1.291       .  A
O561       Ni564   1.884       .  S
O561        C566   1.271       .  A
O562       Ni564   1.870       .  S
O562        C565   1.269       .  A
Ni563      Ni564   2.386       .  S
C565        C736   1.480       .  S
C566        C745   1.481       .  S
C567        C697   1.484       .  S
C568        C712   1.493       .  S
O569       Ni577   1.958       .  S
O569        C579   1.291       .  A
O570       Ni577   1.960       .  S
O570        C580   1.293       .  A
O571       Ni577   1.875       .  S
O571        C581   1.270       .  A
O572       Ni577   1.883       .  S
O572        C582   1.271       .  A
O573       Ni578   1.964       .  S
O573        C582   1.293       .  A
O574       Ni578   1.962       .  S
O574        C581   1.293       .  A
O575       Ni578   1.881       .  S
O575        C580   1.271       .  A
O576       Ni578   1.864       .  S
O576        C579   1.268       .  A
Ni577      Ni578   2.384       .  S
C579        C673   1.473       .  S
C580        C661   1.495       .  S
C581        C700   1.486       .  S
C582        C685   1.492       .  S
O583       Ni591   1.953       .  S
O583        C593   1.291       .  A
O584       Ni591   1.955       .  S
O584        C594   1.292       .  A
O585       Ni591   1.882       .  S
O585        C595   1.272       .  A
O586       Ni591   1.893       .  S
O586        C596   1.273       .  A
O587       Ni592   1.961       .  S
O587        C596   1.293       .  A
O588       Ni592   1.957       .  S
O588        C595   1.292       .  A
O589       Ni592   1.883       .  S
O589        C594   1.272       .  A
O590       Ni592   1.863       .  S
O590        C593   1.269       .  A
Ni591      Ni592   2.381       .  S
C593        C649   1.482       .  S
C594        C640   1.492       .  S
C595        C901   1.496       .  S
C596        C688   1.501       .  S
O597       Ni605   1.950       .  S
O597        C607   1.290       .  A
O598       Ni605   1.956       .  S
O598        C608   1.292       .  A
O599       Ni605   1.889       .  S
O599        C609   1.271       .  A
O600       Ni605   1.891       .  S
O600        C610   1.273       .  A
O601       Ni606   1.979       .  S
O601        C610   1.296       .  A
O602       Ni606   1.965       .  S
O602        C609   1.293       .  A
O603       Ni606   1.887       .  S
O603        C608   1.271       .  A
O604       Ni606   1.868       .  S
O604        C607   1.267       .  A
Ni605      Ni606   2.384       .  S
C607        C676   1.464   1_455  S
C608        C664   1.486       .  S
C609        C724   1.488       .  S
C610        C625   1.509       .  S
O611       Ni619   1.954       .  S
O611        C621   1.292   1_455  A
O612       Ni619   1.957       .  S
O612        C622   1.293   1_455  A
O613       Ni619   1.887       .  S
O613       C1535   1.271   1_455  A
O614       Ni619   1.900       .  S
O614        C624   1.274       .  A
O615       Ni620   1.971       .  S
O615       C1536   1.295       .  A
O616       Ni620   1.968       .  S
O616        C623   1.295       .  A
O617       Ni620   1.878       .  S
O617       C1534   1.270       .  A
O618       Ni620   1.863       .  S
O618       C1533   1.268       .  A
Ni619     Ni1532   2.379   1_455  S
Ni620     Ni1531   2.379       .  S
C621       O1530   1.268       .  A
C621       C1564   1.487       .  S
C622       O1529   1.270       .  A
C622       C1549   1.499       .  S
C623       O1525   1.271       .  A
C623        C817   1.499       .  S
C624       O1527   1.295   1_455  A
C624        C628   1.506       .  S
C625        C626   1.402       .  A
C625        C630   1.428       .  A
C626        C627   1.414   1_556  A
C626        H631   1.084       .  S
C627        C628   1.426       .  A
C627        C634   1.444       .  S
C628        C629   1.399       .  A
C629        C630   1.409   1_554  A
C629       H1544   1.085   1_455  S
C630       C1545   1.445   1_455  S
H632       C1541   1.085       .  S
C633       C1542   1.445       .  S
C633        N635   1.157       .  T
C634        N636   1.157       .  T
C637       C1534   1.499       .  S
C637        C638   1.419       .  A
C637        C642   1.409       .  A
C638        C639   1.403       .  A
C638        H643   1.084       .  S
C639        C640   1.405       .  A
C639        C646   1.444       .  S
C640        C641   1.415       .  A
C641        C642   1.403       .  A
C641        H644   1.084       .  S
C642       C1557   1.443       .  S
C645       C1554   1.443       .  S
C645        N647   1.157       .  T
C646        N648   1.157       .  T
C649        C650   1.415       .  A
C649        C654   1.403       .  A
C650        H655   1.085       .  S
C651        C652   1.404       .  A
C651       C1570   1.443       .  S
C652       C1533   1.487       .  S
C652        C653   1.418       .  A
C653        H656   1.084       .  S
C654        C657   1.443       .  S
C657        N659   1.157       .  T
C658       C1563   1.443       .  S
C658        N660   1.157       .  T
C661        C662   1.401       .  A
C661        C666   1.425       .  A
C662        C663   1.405       .  A
C662        H667   1.085       .  S
C663        C664   1.421       .  A
C663        C670   1.445       .  S
C664        C665   1.396       .  A
C665        C666   1.403       .  A
C665        H668   1.085       .  S
C666        C669   1.445       .  S
C669        N671   1.157       .  T
C670        N672   1.157       .  T
C673        C674   1.399       .  A
C673        C678   1.418       .  A
C674        H679   1.083       .  S
C675       C1588   1.416       .  A
C675        C682   1.444       .  S
C676       C1587   1.416       .  A
C676        C677   1.396       .  A
C677       C1134   1.396       .  A
C677        H680   1.086       .  S
C678       C1133   1.396   1_565  A
C678        C681   1.447       .  S
C681        N683   1.157       .  T
C682        N684   1.157       .  T
C685        C686   1.396   1_556  A
C685        C690   1.423       .  A
C686        C687   1.407       .  A
C686        H691   1.085       .  S
C687        C688   1.428       .  A
C687        C694   1.444       .  S
C688        C689   1.400       .  A
C689        C690   1.405   1_554  A
C689        H692   1.085       .  S
C690        C693   1.445       .  S
C693        N695   1.157       .  T
C694        N696   1.157       .  T
C697        C698   1.396       .  A
C697        C702   1.422       .  A
C698        C699   1.398       .  A
C698        H703   1.085       .  S
C699        C700   1.422       .  A
C699        C706   1.446       .  S
C700        C701   1.400       .  A
C701        C702   1.407       .  A
C701        H704   1.085       .  S
C702        C705   1.444       .  S
C705        N707   1.157       .  T
C706        N708   1.157       .  T
C709        C710   1.417       .  A
C709        C714   1.410       .  A
C710        C711   1.405       .  A
C710        H715   1.085       .  S
C711        C712   1.405       .  A
C711        C718   1.443       .  S
C712        C713   1.414       .  A
C713        C714   1.408       .  A
C713        H716   1.085       .  S
C714        C717   1.443   1_565  S
C717        N719   1.157       .  T
C718        N720   1.157       .  T
C721        C722   1.401       .  A
C721        C726   1.419       .  A
C722        C723   1.405       .  A
C722        H727   1.085       .  S
C723        C724   1.419       .  A
C723        C730   1.445       .  S
C724        C725   1.401       .  A
C725        C726   1.408       .  A
C725        H728   1.084       .  S
C726        C729   1.443       .  S
C729        N731   1.157       .  T
C730        N732   1.157       .  T
C733       C1190   1.399       .  A
C733       C1650   1.431   1_455  A
C734       C1189   1.399   1_565  A
C734        C735   1.400       .  A
C734       H1651   1.085       .  S
C735        C736   1.421       .  A
C735        C742   1.445       .  S
C736        C737   1.393   1_565  A
C737        H740   1.085       .  S
C738       C1645   1.431       .  A
C738       C1653   1.446       .  S
H739       C1646   1.085       .  S
C741       C1650   1.446       .  S
C741        N743   1.158       .  T
C742        N744   1.157       .  T
C745        C746   1.397       .  A
C745        C750   1.418       .  A
C746        C747   1.405       .  A
C746        H751   1.085       .  S
C747        C748   1.424       .  A
C747        C754   1.444       .  S
C748        C749   1.400       .  A
C749        C750   1.402       .  A
C749        H752   1.084       .  S
C750        C753   1.445       .  S
C753        N755   1.157       .  T
C754        N756   1.157       .  T
C757        C758   1.417   1_565  A
C757        C762   1.404       .  A
C758        H763   1.084       .  S
C759       C1672   1.402       .  A
C759       C1678   1.444       .  S
C760       C1671   1.402       .  A
C760       C1217   1.417   1_455  A
C761       C1216   1.417   1_565  A
C761        C762   1.397       .  A
C761       H1676   1.084       .  S
C762        C765   1.444       .  S
H764       C1673   1.084       .  S
C765        N767   1.157       .  T
C766       C1671   1.444       .  S
C766        N768   1.157       .  T
C769        C770   1.397       .  A
C770        C771   1.405       .  A
C770        H775   1.085       .  S
C771        C778   1.445       .  S
C772        C773   1.397       .  A
C773        C774   1.398       .  A
C773        H776   1.085       .  S
C774        C777   1.445       .  S
C777        N779   1.157       .  T
C778        N780   1.157       .  T
C781        C782   1.417       .  A
C781        C786   1.408       .  A
C782        C783   1.408       .  A
C782        H787   1.085       .  S
C783        C784   1.409       .  A
C783        C790   1.443       .  S
C784        C785   1.416       .  A
C785        C786   1.410       .  A
C785        H788   1.085       .  S
C789        N791   1.157       .  T
C790        N792   1.157       .  T
C793        C794   1.419       .  A
C794        C795   1.404       .  A
C794        H799   1.084       .  S
C795        C796   1.408       .  A
C795        C802   1.444       .  S
C797        C798   1.405       .  A
C797        H800   1.084       .  S
C798        C801   1.443       .  S
C801        N803   1.157       .  T
C802        N804   1.157       .  T
C805        C806   1.420       .  A
C805        C810   1.413       .  A
C806        C807   1.409       .  A
C806        H811   1.084       .  S
C807        C808   1.404       .  A
C807        C814   1.444       .  S
C808        C809   1.412       .  A
C809        C810   1.409       .  A
C809        H812   1.085       .  S
C813        N815   1.157       .  T
C814        N816   1.157       .  T
C817        C818   1.416       .  A
C817        C822   1.409       .  A
C818        C819   1.410       .  A
C818       H1735   1.085       .  S
C819        C820   1.409       .  A
C819       C1738   1.443       .  S
C820        C821   1.415       .  A
C821        C822   1.406       .  A
C821        H824   1.085       .  S
C822        C825   1.444       .  S
H823       C1730   1.085   1_455  S
C825        N827   1.157       .  T
C826       C1731   1.443       .  S
C826        N828   1.157       .  T
C829        C830   1.399       .  A
C829        C834   1.414   1_545  A
C831        C838   1.444       .  S
C832        C833   1.404       .  A
C833        C834   1.407       .  A
C833        H836   1.082       .  S
C834        C837   1.444       .  S
C837        N839   1.157       .  T
C838        N840   1.157       .  T
C841        C842   1.411   1_565  A
C841        C846   1.403       .  A
C843        C844   1.411       .  A
C843        C850   1.443       .  S
C845        C846   1.404       .  A
C845        H848   1.085       .  S
C846        C849   1.443       .  S
C849        N851   1.157       .  T
C850        N852   1.157       .  T
C853       C1766   1.413   1_565  A
C853       C1770   1.401   1_455  A
C854       C1765   1.413   1_545  A
C854        C855   1.402       .  A
C854        H859   1.085       .  S
C855        C862   1.443       .  S
C857        C858   1.400       .  A
C858       C1765   1.401       .  A
C858       C1773   1.444       .  S
C861       C1770   1.444       .  S
C861        N863   1.157       .  T
C862        N864   1.157       .  T
C865       C1380   1.483       .  S
C865       C1778   1.412       .  A
C865        C870   1.402       .  A
C866       C1777   1.412       .  A
C866       C1779   1.406       .  A
C866        H871   1.085       .  S
C867       C1778   1.406       .  A
C867        C868   1.409       .  A
C867       C1786   1.443       .  S
C868        C869   1.416       .  A
C869        C870   1.400       .  A
C869        H872   1.085       .  S
C870        C873   1.444       .  S
C873        N875   1.157       .  T
C874       C1779   1.443       .  S
C874        N876   1.157       .  T
C877        C882   1.417       .  A
C878        C879   1.404       .  A
C879        C880   1.414       .  A
C879        C886   1.444       .  S
C880       C1379   1.463       .  S
C880        C881   1.396       .  A
C881        H884   1.086       .  S
C882        C885   1.447       .  S
C885        N887   1.157       .  T
C886        N888   1.157       .  T
C889        C890   1.416       .  A
C889        C894   1.407       .  A
C890        C891   1.412       .  A
C890        H895   1.085       .  S
C891        C892   1.409       .  A
C891        C898   1.443   1_455  S
C892        C893   1.415       .  A
C893        C894   1.406       .  A
C893        H896   1.085       .  S
C894        C897   1.443       .  S
C897       N1811   1.157   1_565  T
C898        N900   1.157       .  T
N899       C1809   1.157   1_545  T
C901        C902   1.416       .  A
C901        C906   1.410       .  A
C902        C903   1.404       .  A
C902        H907   1.084       .  S
C903        C904   1.407       .  A
C903        C910   1.443       .  S
C904       C1817   1.414       .  A
C905       C1816   1.414   1_455  A
C905       C1818   1.405       .  A
C905        H908   1.085       .  S
C906       C1817   1.405       .  A
C906       C1821   1.444       .  S
C909       C1818   1.444       .  S
C909        N911   1.157       .  T
C910        N912   1.157       .  T
O913       Ni921   1.948       .  S
O913        C923   1.289       .  A
O914       Ni921   1.953       .  S
O914        C924   1.291       .  A
O915       Ni921   1.889       .  S
O916       Ni921   1.892       .  S
O916        C926   1.274       .  A
O917       Ni922   1.969       .  S
O918       Ni922   1.956       .  S
O918        C925   1.292       .  A
O919       Ni922   1.885       .  S
O920       Ni922   1.871       .  S
C925       C1360   1.493       .  S
C926       C1348   1.502       .  S
O927       Ni935   1.958       .  S
O927        C937   1.292       .  A
O928       Ni935   1.958       .  S
O928        C938   1.292       .  A
O929       Ni935   1.885       .  S
O929        C939   1.271       .  A
O930       Ni935   1.899       .  S
O930        C940   1.274       .  A
O931       Ni936   1.963       .  S
O931        C940   1.293       .  A
O932       Ni936   1.953       .  S
O932        C939   1.290       .  A
O933       Ni936   1.888       .  S
O933        C938   1.271       .  A
O934       Ni936   1.870       .  S
O934        C937   1.270       .  A
Ni935      Ni936   2.386       .  S
C937       C1309   1.481       .  S
C938       C1297   1.485       .  S
C939       C1285   1.475       .  S
C940       C1345   1.499       .  S
O941       Ni949   1.958       .  S
O941        C951   1.292       .  A
O942       Ni949   1.965       .  S
O942        C952   1.294       .  A
O943       Ni949   1.886       .  S
O943        C953   1.272       .  A
O944       Ni949   1.888       .  S
O944        C954   1.272       .  A
O945       Ni950   1.971       .  S
O945        C954   1.294       .  A
O946       Ni950   1.972   1_455  S
O946        C953   1.295   1_455  A
O947       Ni950   1.870       .  S
O947        C952   1.269       .  A
O948       Ni950   1.865   1_455  S
O948        C951   1.267   1_455  A
Ni949      Ni950   2.384       .  S
C951       C1333   1.472       .  S
C952       C1324   1.492       .  S
C953       C1276   1.501       .  S
C954       C1264   1.494       .  S
O955       Ni963   1.964       .  S
O955        C965   1.294       .  A
O956       Ni963   1.966       .  S
O956        C966   1.294       .  A
O957       Ni963   1.880       .  S
O957        C967   1.271       .  A
O958       Ni963   1.892       .  S
O958        C968   1.273       .  A
O959      Ni1420   1.969       .  S
O959        C968   1.295   1_565  A
O960       Ni964   1.965       .  S
O960       C1423   1.294       .  A
O961       Ni964   1.878       .  S
O961       C1422   1.270       .  A
O962       Ni964   1.868       .  S
O962       C1421   1.268       .  A
Ni963     Ni1420   2.376   1_545  S
Ni964      O1415   1.969       .  S
Ni964     Ni1419   2.376       .  S
C965       O1418   1.268   1_545  A
C965       C1312   1.495   1_545  S
C966       O1417   1.270   1_545  A
C966       C1300   1.496       .  S
C967       O1416   1.294   1_545  A
C967       C1708   1.502   1_545  S
C968       C1261   1.511       .  S
O969       Ni977   1.953       .  S
O969        C979   1.292       .  A
O970       Ni977   1.958       .  S
O970        C980   1.292       .  A
O971       Ni977   1.879       .  S
O971        C981   1.269   1_545  A
O972       Ni977   1.890       .  S
O972        C982   1.273       .  A
O973      Ni1434   1.969       .  S
O973        C982   1.295   1_565  A
O974       Ni978   1.965       .  S
O974       C1437   1.293       .  A
O975       Ni978   1.872       .  S
O975       C1436   1.268       .  A
O976       Ni978   1.858       .  S
O976       C1435   1.267       .  A
Ni977     Ni1434   2.385   1_545  S
Ni978      O1429   1.969       .  S
Ni978     Ni1433   2.385       .  S
C979       O1432   1.267   1_545  A
C979       C1216   1.483       .  S
C980       O1431   1.268   1_545  A
C980       C1225   1.477       .  S
C981       O1430   1.293       .  A
C981       C1744   1.479       .  S
C982       C1237   1.503       .  S
O983       Ni991   1.959       .  S
O983        C993   1.293       .  A
O984       Ni991   1.958       .  S
O984        C994   1.293       .  A
O985       Ni991   1.882       .  S
O985        C995   1.270       .  A
O986       Ni991   1.897       .  S
O986        C996   1.274       .  A
O987       Ni992   1.967       .  S
O987        C996   1.294       .  A
O988       Ni992   1.967       .  S
O988        C995   1.294       .  A
O989       Ni992   1.881       .  S
O989        C994   1.270       .  A
O990       Ni992   1.865       .  S
O990        C993   1.266       .  A
Ni991      Ni992   2.381       .  S
C993       C1189   1.491       .  S
C994       C1204   1.490       .  S
C995       C1177   1.487       .  S
C996       C1240   1.503       .  S
O997      Ni1005   1.951       .  S
O997       C1007   1.291       .  A
O998      Ni1005   1.951       .  S
O998       C1008   1.292       .  A
O999      Ni1005   1.877       .  S
O999       C1009   1.270       .  A
O1000     Ni1005   1.889       .  S
O1000      C1010   1.273       .  A
O1001     Ni1006   1.965       .  S
O1001      C1010   1.293       .  A
O1002     Ni1006   1.966       .  S
O1002      C1009   1.295       .  A
O1003     Ni1006   1.877       .  S
O1003      C1008   1.269       .  A
O1004     Ni1006   1.861       .  S
O1004      C1007   1.268       .  A
Ni1005    Ni1006   2.380       .  S
C1007      C1213   1.484       .  S
C1008      C1228   1.483       .  S
C1009      C1249   1.502       .  S
C1010      C1165   1.500       .  S
O1011     Ni1019   1.951       .  S
O1011      C1021   1.291       .  A
O1012     Ni1019   1.955       .  S
O1012      C1022   1.291       .  A
O1013     Ni1019   1.886       .  S
O1013      C1023   1.271       .  A
O1014     Ni1019   1.894       .  S
O1014      C1024   1.274       .  A
O1015     Ni1020   1.957       .  S
O1015      C1024   1.292       .  A
O1016     Ni1020   1.950       .  S
O1016      C1023   1.291       .  A
O1017     Ni1020   1.884       .  S
O1017      C1022   1.271       .  A
O1018     Ni1020   1.870       .  S
O1018      C1021   1.269       .  A
Ni1019    Ni1020   2.386       .  S
C1021      C1192   1.480       .  S
C1022      C1201   1.481       .  S
C1023      C1153   1.484       .  S
C1024      C1168   1.493       .  S
O1025     Ni1033   1.958       .  S
O1025      C1035   1.291       .  A
O1026     Ni1033   1.960       .  S
O1026      C1036   1.293       .  A
O1027     Ni1033   1.875       .  S
O1027      C1037   1.270       .  A
O1028     Ni1033   1.883       .  S
O1028      C1038   1.271       .  A
O1029     Ni1034   1.964       .  S
O1029      C1038   1.293       .  A
O1030     Ni1034   1.962       .  S
O1030      C1037   1.293       .  A
O1031     Ni1034   1.881       .  S
O1031      C1036   1.271       .  A
O1032     Ni1034   1.864       .  S
O1032      C1035   1.268       .  A
Ni1033    Ni1034   2.384       .  S
C1035      C1129   1.473       .  S
C1036      C1117   1.495       .  S
C1037      C1156   1.486       .  S
C1038      C1141   1.492       .  S
O1039     Ni1047   1.953       .  S
O1039      C1049   1.291       .  A
O1040     Ni1047   1.955       .  S
O1040      C1050   1.292       .  A
O1041     Ni1047   1.882       .  S
O1041      C1051   1.272       .  A
O1042     Ni1047   1.893       .  S
O1042      C1052   1.273       .  A
O1043     Ni1048   1.961       .  S
O1043      C1052   1.293       .  A
O1044     Ni1048   1.957       .  S
O1044      C1051   1.292       .  A
O1045     Ni1048   1.883       .  S
O1045      C1050   1.272       .  A
O1046     Ni1048   1.863       .  S
O1046      C1049   1.269       .  A
Ni1047    Ni1048   2.381       .  S
C1049      C1105   1.482       .  S
C1050      C1096   1.492       .  S
C1051      C1357   1.496       .  S
C1052      C1144   1.500       .  S
O1053     Ni1061   1.950       .  S
O1053      C1063   1.290       .  A
O1054     Ni1061   1.956       .  S
O1054      C1064   1.292       .  A
O1055     Ni1061   1.889       .  S
O1055      C1065   1.271       .  A
O1056     Ni1061   1.891       .  S
O1056      C1066   1.273       .  A
O1057     Ni1062   1.979       .  S
O1057      C1066   1.296       .  A
O1058     Ni1062   1.965       .  S
O1058      C1065   1.293       .  A
O1059     Ni1062   1.887       .  S
O1059      C1064   1.271       .  A
O1060     Ni1062   1.868       .  S
O1060      C1063   1.267       .  A
Ni1061    Ni1062   2.384       .  S
C1063      C1132   1.464       .  S
C1064      C1120   1.486       .  S
C1065      C1180   1.488       .  S
C1066      C1081   1.509       .  S
O1067     Ni1075   1.954       .  S
O1067      C1077   1.292       .  A
O1068     Ni1075   1.958       .  S
O1068      C1078   1.293       .  A
O1069     Ni1075   1.887       .  S
O1070     Ni1075   1.900       .  S
O1070      C1080   1.274       .  A
O1071     Ni1076   1.971       .  S
O1072     Ni1076   1.968       .  S
O1072      C1079   1.295       .  A
O1073     Ni1076   1.878       .  S
O1074     Ni1076   1.863       .  S
C1079      C1273   1.499       .  S
C1080      C1084   1.506       .  S
C1081      C1082   1.402       .  A
C1081      C1086   1.428       .  A
C1082      C1083   1.414   1_556  A
C1082      H1087   1.084       .  S
C1083      C1084   1.426       .  A
C1083      C1090   1.444       .  S
C1084      C1085   1.399       .  A
C1085      C1086   1.409   1_554  A
C1089      N1091   1.157       .  T
C1090      N1092   1.157       .  T
C1093      C1094   1.419       .  A
C1093      C1098   1.409   1_655  A
C1094      C1095   1.403       .  A
C1094      H1099   1.084       .  S
C1095      C1096   1.405       .  A
C1095      C1102   1.444       .  S
C1096      C1097   1.415   1_655  A
C1097      C1098   1.403       .  A
C1097      H1100   1.084       .  S
C1101      N1103   1.157       .  T
C1102      N1104   1.157       .  T
C1105      C1106   1.415       .  A
C1105      C1110   1.403       .  A
C1106      C1563   1.398   1_655  A
C1106      H1111   1.085   1_655  S
C1107      C1562   1.398   1_445  A
C1107      C1108   1.404   1_455  A
C1108      C1109   1.418   1_545  A
C1109      C1566   1.398       .  A
C1109      H1112   1.084       .  S
C1110      C1565   1.398       .  A
C1110      C1113   1.443       .  S
C1113      N1115   1.157       .  T
C1114      N1116   1.157       .  T
C1117      C1118   1.401       .  A
C1117      C1122   1.425       .  A
C1118      C1119   1.405       .  A
C1118      H1123   1.085       .  S
C1119      C1120   1.421       .  A
C1119      C1126   1.445       .  S
C1120      C1121   1.396       .  A
C1121      C1122   1.403       .  A
C1121      H1124   1.085       .  S
C1122      C1125   1.445       .  S
C1125      N1127   1.157       .  T
C1126      N1128   1.157       .  T
C1129      C1130   1.399       .  A
C1129      C1134   1.418       .  A
C1130      C1587   1.402       .  A
C1130      H1135   1.084       .  S
C1131      C1586   1.402       .  A
C1131      C1138   1.444   1_665  S
C1132      C1133   1.396       .  A
C1133      H1136   1.085       .  S
C1134      C1137   1.447       .  S
C1137      N1139   1.157       .  T
C1138      N1140   1.157       .  T
C1141      C1142   1.396   1_556  A
C1141      C1146   1.423       .  A
C1142      C1143   1.407       .  A
C1142      H1147   1.085       .  S
C1143      C1144   1.428       .  A
C1143      C1150   1.444       .  S
C1144      C1145   1.400       .  A
C1145      C1146   1.405   1_554  A
C1145      H1148   1.085       .  S
C1146      C1149   1.445       .  S
C1149      N1151   1.157       .  T
C1150      N1152   1.157       .  T
C1153      C1154   1.396       .  A
C1153      C1158   1.422       .  A
C1154      C1155   1.398       .  A
C1154      H1159   1.085       .  S
C1155      C1156   1.422       .  A
C1155      C1162   1.446       .  S
C1156      C1157   1.400       .  A
C1157      C1158   1.407       .  A
C1157      H1160   1.085       .  S
C1158      C1161   1.444       .  S
C1161      N1163   1.157       .  T
C1162      N1164   1.157       .  T
C1165      C1166   1.417       .  A
C1165      C1170   1.410       .  A
C1166      C1167   1.405       .  A
C1166      H1171   1.085       .  S
C1167      C1168   1.405       .  A
C1167      C1174   1.443       .  S
C1168      C1169   1.414       .  A
C1169      C1170   1.408       .  A
C1169      H1172   1.085       .  S
C1170      C1173   1.443       .  S
C1173      N1175   1.157       .  T
C1174      N1176   1.157       .  T
C1177      C1178   1.401       .  A
C1177      C1182   1.419       .  A
C1178      C1179   1.405       .  A
C1178      H1183   1.085       .  S
C1179      C1180   1.419       .  A
C1179      C1186   1.445       .  S
C1180      C1181   1.401       .  A
C1181      C1182   1.408       .  A
C1181      H1184   1.084       .  S
C1182      C1185   1.443       .  S
C1185      N1187   1.157       .  T
C1186      N1188   1.157       .  T
C1190      C1191   1.400   1_455  A
C1191      C1192   1.421       .  A
C1191      C1198   1.445       .  S
C1192      C1193   1.393       .  A
C1193      C1650   1.397       .  A
C1193      H1196   1.085       .  S
C1194      C1649   1.397       .  A
C1197      N1199   1.158       .  T
C1198      N1200   1.157       .  T
C1201      C1202   1.397       .  A
C1201      C1206   1.418       .  A
C1202      C1203   1.405       .  A
C1202      H1207   1.085       .  S
C1203      C1204   1.424       .  A
C1203      C1210   1.444       .  S
C1204      C1205   1.400       .  A
C1205      C1206   1.402       .  A
C1205      H1208   1.084       .  S
C1206      C1209   1.445       .  S
C1209      N1211   1.157       .  T
C1210      N1212   1.157       .  T
C1213      C1214   1.417       .  A
C1213      C1218   1.404       .  A
C1214      C1671   1.396   1_655  A
C1214      H1219   1.084       .  S
C1215      C1670   1.396   1_455  A
C1217      C1218   1.397       .  A
C1218      C1221   1.444       .  S
C1221      N1223   1.157       .  T
C1222      N1224   1.157       .  T
C1225      C1226   1.397       .  A
C1225      C1686   1.419   1_545  A
C1226      C1227   1.405       .  A
C1226      H1231   1.085       .  S
C1227      C1684   1.423   1_545  A
C1227      C1234   1.445       .  S
C1228      C1683   1.423       .  A
C1228      C1229   1.397       .  A
C1229      C1230   1.398       .  A
C1229      H1232   1.085       .  S
C1230      C1681   1.419       .  A
C1230      C1233   1.445       .  S
C1233      N1235   1.157       .  T
C1234      N1236   1.157       .  T
C1237      C1238   1.417       .  A
C1237      C1242   1.408       .  A
C1238      C1239   1.408       .  A
C1238      H1243   1.085       .  S
C1239      C1240   1.409       .  A
C1239      C1246   1.443       .  S
C1240      C1241   1.416       .  A
C1241      C1242   1.410       .  A
C1241      H1244   1.085       .  S
C1242      C1701   1.442   1_545  S
C1245      C1698   1.442       .  S
C1245      N1247   1.157       .  T
C1246      N1248   1.157       .  T
C1249      C1250   1.419       .  A
C1249      C1710   1.408       .  A
C1250      C1251   1.404       .  A
C1250      H1255   1.084       .  S
C1251      C1252   1.408       .  A
C1251      C1258   1.444       .  S
C1252      C1423   1.502       .  S
C1252      C1709   1.419       .  A
C1253      C1708   1.419   1_545  A
C1253      C1254   1.405       .  A
C1253      H1256   1.084       .  S
C1254      C1705   1.408   1_545  A
C1254      C1257   1.443       .  S
C1257      N1259   1.157       .  T
C1258      N1260   1.157       .  T
C1261      C1262   1.420       .  A
C1261      C1266   1.413       .  A
C1262      C1263   1.409       .  A
C1262      H1267   1.084       .  S
C1263      C1264   1.405       .  A
C1263      C1270   1.444       .  S
C1264      C1265   1.412       .  A
C1265      C1266   1.409       .  A
C1265      H1268   1.085       .  S
C1266      C1725   1.443   1_545  S
C1269      C1722   1.443       .  S
C1269      N1271   1.157       .  T
C1270      N1272   1.157   1_655  T
C1273      C1274   1.416       .  A
C1273      C1278   1.409       .  A
C1274      C1275   1.410   1_655  A
C1275      C1276   1.409   1_455  A
C1276      C1277   1.415       .  A
C1277      C1278   1.406       .  A
C1277      H1280   1.085       .  S
C1278      C1281   1.444       .  S
C1281      N1283   1.157       .  T
C1282      N1284   1.157       .  T
C1285      C1286   1.399       .  A
C1285      C1290   1.414       .  A
C1286      C1743   1.401       .  A
C1286      H1747   1.085       .  S
C1287      C1742   1.401       .  A
C1287      C1744   1.416   1_545  A
C1287      C1294   1.444       .  S
C1288      C1437   1.479       .  S
C1288      C1743   1.416       .  A
C1288      C1289   1.404       .  A
C1289      C1290   1.407       .  A
C1289      H1292   1.083       .  S
C1290      C1293   1.444       .  S
H1291      C1742   1.085       .  S
C1293      N1295   1.157       .  T
C1294      N1296   1.157       .  T
C1297      C1298   1.411       .  A
C1297      C1302   1.403       .  A
C1298      C1755   1.407       .  A
C1298      H1759   1.085       .  S
C1299      C1754   1.407       .  A
C1299      C1300   1.411       .  A
C1299      C1306   1.443       .  S
C1300      C1757   1.417   1_545  A
C1301      C1756   1.417       .  A
C1301      C1302   1.404       .  A
C1301      H1304   1.085       .  S
C1302      C1305   1.443       .  S
H1303      C1754   1.085       .  S
C1305      N1307   1.157       .  T
C1306      N1308   1.157       .  T
C1310      C1311   1.402   1_455  A
C1310      H1315   1.085       .  S
C1311      C1768   1.408       .  A
C1311      C1318   1.443       .  S
C1312      C1767   1.408   1_565  A
C1312      C1769   1.420       .  A
C1313      C1768   1.420       .  A
C1313      C1314   1.400       .  A
C1313      H1772   1.084       .  S
H1316      C1769   1.084       .  S
C1317      N1319   1.157       .  T
C1318      N1320   1.157   1_655  T
C1321      C1326   1.402   1_655  A
C1322      H1327   1.085       .  S
C1323      C1324   1.409       .  A
C1324      C1325   1.416       .  A
C1325      C1326   1.400   1_655  A
C1325      H1328   1.085   1_655  S
C1326      C1329   1.444       .  S
C1329      N1331   1.157       .  T
C1330      N1332   1.157       .  T
C1333      C1790   1.399   1_545  A
C1333      C1338   1.418   1_655  A
C1334      C1789   1.400       .  A
C1334      C1335   1.404       .  A
C1334      H1795   1.084       .  S
C1335      C1336   1.414   1_655  A
C1335      C1342   1.444       .  S
C1336      C1337   1.396       .  A
C1337      C1794   1.396       .  A
C1337      H1340   1.086       .  S
C1338      C1793   1.396   1_545  A
C1338      C1341   1.447       .  S
H1339      C1790   1.084       .  S
C1341      N1343   1.157       .  T
C1342      N1344   1.157       .  T
C1345      C1346   1.416       .  A
C1345      C1350   1.406       .  A
C1346      C1347   1.412       .  A
C1346      H1351   1.085       .  S
C1347      C1348   1.410       .  A
C1347      C1354   1.443       .  S
C1348      C1349   1.415       .  A
C1349      C1350   1.406       .  A
C1349      H1352   1.085       .  S
C1350      C1353   1.443       .  S
C1354      N1356   1.157       .  T
C1357      C1358   1.416       .  A
C1357      C1362   1.410   1_655  A
C1358      C1359   1.404       .  A
C1358      H1363   1.084       .  S
C1359      C1360   1.407       .  A
C1359      C1366   1.443       .  S
C1361      H1364   1.085       .  S
C1365      N1367   1.157       .  T
C1366      N1368   1.157       .  T
O1369     Ni1377   1.948       .  S
O1369      C1379   1.289       .  A
O1370     Ni1377   1.953       .  S
O1370      C1380   1.291       .  A
O1371     Ni1377   1.889       .  S
O1372     Ni1377   1.892       .  S
O1372      C1382   1.274       .  A
O1373     Ni1378   1.968       .  S
O1374     Ni1378   1.956       .  S
O1374      C1381   1.292       .  A
O1375     Ni1378   1.885       .  S
O1376     Ni1378   1.871       .  S
C1381      C1816   1.493       .  S
C1382      C1804   1.502       .  S
O1383     Ni1391   1.958       .  S
O1383      C1393   1.292       .  A
O1384     Ni1391   1.958       .  S
O1384      C1394   1.292       .  A
O1385     Ni1391   1.885       .  S
O1385      C1395   1.271       .  A
O1386     Ni1391   1.899       .  S
O1386      C1396   1.274       .  A
O1387     Ni1392   1.962   1_565  S
O1387      C1396   1.293       .  A
O1388     Ni1392   1.953       .  S
O1388      C1395   1.290   1_545  A
O1389     Ni1392   1.888       .  S
O1389      C1394   1.271   1_545  A
O1390     Ni1392   1.870       .  S
O1390      C1393   1.270   1_545  A
Ni1391    Ni1392   2.386   1_565  S
C1393      C1765   1.480       .  S
C1394      C1753   1.485       .  S
C1395      C1741   1.475   1_565  S
C1396      C1801   1.499       .  S
O1397     Ni1405   1.958       .  S
O1397      C1407   1.292       .  A
O1398     Ni1405   1.965       .  S
O1398      C1408   1.294       .  A
O1399     Ni1405   1.886       .  S
O1399      C1409   1.272       .  A
O1400     Ni1405   1.888       .  S
O1400      C1410   1.272       .  A
O1401     Ni1406   1.970       .  S
O1401      C1410   1.294       .  A
O1402     Ni1406   1.972   1_455  S
O1402      C1409   1.295   1_455  A
O1403     Ni1406   1.871       .  S
O1403      C1408   1.269       .  A
O1404     Ni1406   1.866   1_455  S
O1404      C1407   1.267   1_455  A
Ni1405    Ni1406   2.384       .  S
C1407      C1789   1.472       .  S
C1408      C1780   1.493       .  S
C1409      C1732   1.501       .  S
C1410      C1720   1.494       .  S
O1411     Ni1419   1.964       .  S
O1411      C1421   1.294       .  A
O1412     Ni1419   1.966       .  S
O1412      C1422   1.294       .  A
O1413     Ni1419   1.880       .  S
O1413      C1423   1.271       .  A
O1414     Ni1419   1.892       .  S
O1414      C1424   1.273       .  A
O1415      C1424   1.295       .  A
O1416     Ni1420   1.965       .  S
O1417     Ni1420   1.878       .  S
O1418     Ni1420   1.868       .  S
C1421      C1768   1.496       .  S
C1422      C1756   1.496       .  S
C1424      C1717   1.511       .  S
O1425     Ni1433   1.953       .  S
O1425      C1435   1.292       .  A
O1426     Ni1433   1.958       .  S
O1426      C1436   1.292       .  A
O1427     Ni1433   1.879       .  S
O1427      C1437   1.269       .  A
O1428     Ni1433   1.890       .  S
O1428      C1438   1.273       .  A
O1429      C1438   1.295       .  A
O1430     Ni1434   1.965       .  S
O1431     Ni1434   1.872       .  S
O1432     Ni1434   1.858       .  S
C1435      C1672   1.483       .  S
C1436      C1681   1.477       .  S
C1438      C1693   1.503       .  S
O1439     Ni1447   1.959       .  S
O1439      C1449   1.293       .  A
O1440     Ni1447   1.958       .  S
O1440      C1450   1.293       .  A
O1441     Ni1447   1.882       .  S
O1441      C1451   1.270       .  A
O1442     Ni1447   1.897       .  S
O1442      C1452   1.274       .  A
O1443     Ni1448   1.966       .  S
O1443      C1452   1.294       .  A
O1444     Ni1448   1.967       .  S
O1444      C1451   1.294       .  A
O1445     Ni1448   1.881       .  S
O1445      C1450   1.270       .  A
O1446     Ni1448   1.865       .  S
O1446      C1449   1.266       .  A
Ni1447    Ni1448   2.381       .  S
C1449      C1645   1.491       .  S
C1450      C1660   1.490       .  S
C1451      C1633   1.487       .  S
C1452      C1696   1.503       .  S
O1453     Ni1461   1.951       .  S
O1453      C1463   1.291       .  A
O1454     Ni1461   1.951       .  S
O1454      C1464   1.292       .  A
O1455     Ni1461   1.877       .  S
O1455      C1465   1.270       .  A
O1456     Ni1461   1.888       .  S
O1456      C1466   1.273       .  A
O1457     Ni1462   1.965   1_565  S
O1457      C1466   1.293       .  A
O1458     Ni1462   1.966       .  S
O1458      C1465   1.295   1_545  A
O1459     Ni1462   1.876       .  S
O1459      C1464   1.269   1_545  A
O1460     Ni1462   1.861       .  S
O1460      C1463   1.268   1_545  A
Ni1461    Ni1462   2.380   1_565  S
C1463      C1669   1.484       .  S
C1464      C1684   1.483       .  S
C1465      C1705   1.502       .  S
C1466      C1621   1.500       .  S
O1467     Ni1475   1.952       .  S
O1467      C1477   1.291       .  A
O1468     Ni1475   1.956       .  S
O1468      C1478   1.291       .  A
O1469     Ni1475   1.886       .  S
O1469      C1479   1.271       .  A
O1470     Ni1475   1.894       .  S
O1470      C1480   1.274       .  A
O1471     Ni1476   1.957       .  S
O1471      C1480   1.292       .  A
O1472     Ni1476   1.950       .  S
O1472      C1479   1.291       .  A
O1473     Ni1476   1.883       .  S
O1473      C1478   1.271       .  A
O1474     Ni1476   1.870       .  S
O1474      C1477   1.269       .  A
Ni1475    Ni1476   2.386       .  S
C1477      C1648   1.480       .  S
C1478      C1657   1.481       .  S
C1479      C1609   1.484       .  S
C1480      C1624   1.493       .  S
O1481     Ni1489   1.958       .  S
O1481      C1491   1.291       .  A
O1482     Ni1489   1.960       .  S
O1482      C1492   1.293       .  A
O1483     Ni1489   1.875       .  S
O1483      C1493   1.270       .  A
O1484     Ni1489   1.883       .  S
O1484      C1494   1.271       .  A
O1485     Ni1490   1.964       .  S
O1485      C1494   1.293       .  A
O1486     Ni1490   1.962       .  S
O1486      C1493   1.293       .  A
O1487     Ni1490   1.881       .  S
O1487      C1492   1.271       .  A
O1488     Ni1490   1.864       .  S
O1488      C1491   1.268       .  A
Ni1489    Ni1490   2.384       .  S
C1491      C1585   1.473       .  S
C1492      C1573   1.495       .  S
C1493      C1612   1.486       .  S
C1494      C1597   1.492       .  S
O1495     Ni1503   1.953       .  S
O1495      C1505   1.291       .  A
O1496     Ni1503   1.955       .  S
O1496      C1506   1.292       .  A
O1497     Ni1503   1.882       .  S
O1497      C1507   1.272       .  A
O1498     Ni1503   1.893       .  S
O1498      C1508   1.273       .  A
O1499     Ni1504   1.961       .  S
O1499      C1508   1.293       .  A
O1500     Ni1504   1.957   1_455  S
O1500      C1507   1.292   1_455  A
O1501     Ni1504   1.883       .  S
O1501      C1506   1.272       .  A
O1502     Ni1504   1.863       .  S
O1502      C1505   1.269       .  A
Ni1503    Ni1504   2.381       .  S
C1505      C1561   1.482       .  S
C1506      C1552   1.492       .  S
C1507      C1813   1.496       .  S
C1508      C1600   1.501       .  S
O1509     Ni1517   1.950       .  S
O1509      C1519   1.290       .  A
O1510     Ni1517   1.956       .  S
O1510      C1520   1.292       .  A
O1511     Ni1517   1.889       .  S
O1511      C1521   1.271       .  A
O1512     Ni1517   1.891       .  S
O1512      C1522   1.273       .  A
O1513     Ni1518   1.979       .  S
O1513      C1522   1.296       .  A
O1514     Ni1518   1.965       .  S
O1514      C1521   1.293       .  A
O1515     Ni1518   1.887       .  S
O1515      C1520   1.271       .  A
O1516     Ni1518   1.868       .  S
O1516      C1519   1.267       .  A
Ni1517    Ni1518   2.384       .  S
C1519      C1588   1.464       .  S
C1520      C1576   1.486       .  S
C1521      C1636   1.488       .  S
C1522      C1537   1.509       .  S
O1523     Ni1531   1.954       .  S
O1523      C1533   1.292       .  A
O1524     Ni1531   1.958       .  S
O1524      C1534   1.293       .  A
O1525     Ni1531   1.887       .  S
O1526     Ni1531   1.900       .  S
O1526      C1536   1.274       .  A
O1527     Ni1532   1.971       .  S
O1528     Ni1532   1.968       .  S
O1528      C1535   1.295       .  A
O1529     Ni1532   1.878       .  S
O1530     Ni1532   1.863       .  S
C1535      C1729   1.499       .  S
C1536      C1540   1.506       .  S
C1537      C1538   1.402       .  A
C1537      C1542   1.428       .  A
C1538      C1539   1.414   1_556  A
C1538      H1543   1.084       .  S
C1539      C1540   1.426       .  A
C1539      C1546   1.444       .  S
C1540      C1541   1.399       .  A
C1541      C1542   1.409   1_554  A
C1545      N1547   1.157       .  T
C1546      N1548   1.157       .  T
C1549      C1550   1.419       .  A
C1549      C1554   1.409   1_655  A
C1550      C1551   1.403       .  A
C1550      H1555   1.084       .  S
C1551      C1552   1.405       .  A
C1551      C1558   1.444       .  S
C1552      C1553   1.415   1_655  A
C1553      C1554   1.403       .  A
C1553      H1556   1.084       .  S
C1557      N1559   1.157       .  T
C1558      N1560   1.157       .  T
C1561      C1562   1.415       .  A
C1561      C1566   1.403       .  A
C1562      H1567   1.085   1_655  S
C1563      C1564   1.404   1_455  A
C1564      C1565   1.418       .  A
C1565      H1568   1.084       .  S
C1566      C1569   1.443       .  S
C1569      N1571   1.157       .  T
C1570      N1572   1.157       .  T
C1573      C1574   1.401       .  A
C1573      C1578   1.425       .  A
C1574      C1575   1.405       .  A
C1574      H1579   1.085       .  S
C1575      C1576   1.421       .  A
C1575      C1582   1.445       .  S
C1576      C1577   1.396       .  A
C1577      C1578   1.403       .  A
C1577      H1580   1.085       .  S
C1578      C1581   1.445       .  S
C1581      N1583   1.157       .  T
C1582      N1584   1.157       .  T
C1585      C1586   1.399       .  A
C1585      C1590   1.418       .  A
C1586      H1591   1.083       .  S
C1587      C1594   1.444   1_655  S
C1588      C1589   1.396       .  A
C1589      H1592   1.086       .  S
C1590      C1593   1.447       .  S
C1593      N1595   1.157       .  T
C1594      N1596   1.157       .  T
C1597      C1598   1.396   1_556  A
C1597      C1602   1.423       .  A
C1598      C1599   1.407       .  A
C1598      H1603   1.085       .  S
C1599      C1600   1.428       .  A
C1599      C1606   1.444       .  S
C1600      C1601   1.400       .  A
C1601      C1602   1.405   1_554  A
C1601      H1604   1.085       .  S
C1602      C1605   1.445       .  S
C1605      N1607   1.157       .  T
C1606      N1608   1.157       .  T
C1609      C1610   1.396       .  A
C1609      C1614   1.422       .  A
C1610      C1611   1.398       .  A
C1610      H1615   1.085       .  S
C1611      C1612   1.422       .  A
C1611      C1618   1.446       .  S
C1612      C1613   1.400       .  A
C1613      C1614   1.407       .  A
C1613      H1616   1.085       .  S
C1614      C1617   1.444       .  S
C1617      N1619   1.157       .  T
C1618      N1620   1.157       .  T
C1621      C1622   1.417       .  A
C1621      C1626   1.410       .  A
C1622      C1623   1.405       .  A
C1622      H1627   1.085       .  S
C1623      C1624   1.405       .  A
C1623      C1630   1.443       .  S
C1624      C1625   1.414       .  A
C1625      C1626   1.408       .  A
C1625      H1628   1.085       .  S
C1626      C1629   1.443   1_565  S
C1629      N1631   1.157       .  T
C1630      N1632   1.157       .  T
C1633      C1634   1.401       .  A
C1633      C1638   1.419       .  A
C1634      C1635   1.405       .  A
C1634      H1639   1.085       .  S
C1635      C1636   1.419       .  A
C1635      C1642   1.445       .  S
C1636      C1637   1.401       .  A
C1637      C1638   1.408       .  A
C1637      H1640   1.084       .  S
C1638      C1641   1.443       .  S
C1641      N1643   1.157       .  T
C1642      N1644   1.157       .  T
C1646      C1647   1.400   1_455  A
C1647      C1648   1.421       .  A
C1647      C1654   1.445       .  S
C1648      C1649   1.393   1_565  A
C1649      H1652   1.085       .  S
C1653      N1655   1.158       .  T
C1654      N1656   1.157       .  T
C1657      C1658   1.397       .  A
C1657      C1662   1.418       .  A
C1658      C1659   1.405       .  A
C1658      H1663   1.085       .  S
C1659      C1660   1.424       .  A
C1659      C1666   1.444       .  S
C1660      C1661   1.400       .  A
C1661      C1662   1.402       .  A
C1661      H1664   1.084       .  S
C1662      C1665   1.445       .  S
C1665      N1667   1.157       .  T
C1666      N1668   1.157       .  T
C1669      C1670   1.417   1_565  A
C1669      C1674   1.404       .  A
C1670      H1675   1.084       .  S
C1673      C1674   1.397       .  A
C1674      C1677   1.444       .  S
C1677      N1679   1.157       .  T
C1678      N1680   1.157       .  T
C1681      C1682   1.397       .  A
C1682      C1683   1.405       .  A
C1682      H1687   1.085       .  S
C1683      C1690   1.445       .  S
C1684      C1685   1.397       .  A
C1685      C1686   1.398       .  A
C1685      H1688   1.085       .  S
C1686      C1689   1.445       .  S
C1689      N1691   1.157       .  T
C1690      N1692   1.157       .  T
C1693      C1694   1.417       .  A
C1693      C1698   1.408       .  A
C1694      C1695   1.408       .  A
C1694      H1699   1.085       .  S
C1695      C1696   1.409       .  A
C1695      C1702   1.443       .  S
C1696      C1697   1.416       .  A
C1697      C1698   1.410       .  A
C1697      H1700   1.085       .  S
C1701      N1703   1.157       .  T
C1702      N1704   1.157       .  T
C1705      C1706   1.419       .  A
C1706      C1707   1.404       .  A
C1706      H1711   1.084       .  S
C1707      C1708   1.408       .  A
C1707      C1714   1.444       .  S
C1709      C1710   1.405       .  A
C1709      H1712   1.084       .  S
C1710      C1713   1.443       .  S
C1713      N1715   1.157       .  T
C1714      N1716   1.157       .  T
C1717      C1718   1.420       .  A
C1717      C1722   1.413       .  A
C1718      C1719   1.409       .  A
C1718      H1723   1.084       .  S
C1719      C1720   1.405       .  A
C1719      C1726   1.444       .  S
C1720      C1721   1.412       .  A
C1721      C1722   1.409       .  A
C1721      H1724   1.085       .  S
C1725      N1727   1.157       .  T
C1726      N1728   1.157   1_655  T
C1729      C1730   1.416       .  A
C1729      C1734   1.409       .  A
C1730      C1731   1.410   1_655  A
C1731      C1732   1.409   1_455  A
C1732      C1733   1.415       .  A
C1733      C1734   1.406       .  A
C1733      H1736   1.085       .  S
C1734      C1737   1.444       .  S
C1737      N1739   1.157       .  T
C1738      N1740   1.157       .  T
C1741      C1742   1.399       .  A
C1741      C1746   1.414   1_545  A
C1743      C1750   1.444       .  S
C1744      C1745   1.404       .  A
C1745      C1746   1.407       .  A
C1745      H1748   1.082       .  S
C1746      C1749   1.444       .  S
C1749      N1751   1.157       .  T
C1750      N1752   1.157       .  T
C1753      C1754   1.411   1_565  A
C1753      C1758   1.403       .  A
C1755      C1756   1.411       .  A
C1755      C1762   1.443       .  S
C1757      C1758   1.404       .  A
C1757      H1760   1.085       .  S
C1758      C1761   1.443       .  S
C1761      N1763   1.157       .  T
C1762      N1764   1.157       .  T
C1766      C1767   1.402   1_455  A
C1766      H1771   1.085       .  S
C1767      C1774   1.443   1_655  S
C1769      C1770   1.400       .  A
C1773      N1775   1.157       .  T
C1774      N1776   1.157       .  T
C1777      C1782   1.402   1_655  A
C1778      H1783   1.085       .  S
C1779      C1780   1.409       .  A
C1780      C1781   1.416   1_655  A
C1781      C1782   1.400       .  A
C1781      H1784   1.085       .  S
C1782      C1785   1.444       .  S
C1785      N1787   1.157       .  T
C1786      N1788   1.157       .  T
C1789      C1794   1.417   1_655  A
C1790      C1791   1.404       .  A
C1791      C1792   1.414   1_655  A
C1791      C1798   1.444       .  S
C1792      C1793   1.396       .  A
C1793      H1796   1.086       .  S
C1794      C1797   1.447       .  S
C1797      N1799   1.157       .  T
C1798      N1800   1.157       .  T
C1801      C1802   1.416       .  A
C1801      C1806   1.407       .  A
C1802      C1803   1.412       .  A
C1802      H1807   1.085       .  S
C1803      C1804   1.409       .  A
C1803      C1810   1.443       .  S
C1804      C1805   1.415       .  A
C1805      C1806   1.406       .  A
C1805      H1808   1.085       .  S
C1806      C1809   1.443       .  S
C1810      N1812   1.157       .  T
C1813      C1814   1.416       .  A
C1813      C1818   1.410   1_655  A
C1814      C1815   1.404       .  A
C1814      H1819   1.084       .  S
C1815      C1816   1.407       .  A
C1815      C1822   1.443       .  S
C1817      H1820   1.085       .  S
C1821      N1823   1.157       .  T
C1822      N1824   1.157       .  T
