geometry optimzed in LAMMPS
_audit_creation_date              2020-12-01 
_audit_creation_method            'lammps2cif' 
_symmetry_space_group_name_H-M    'P1' 
_symmetry_Int_Tables_number       1 
_symmetry_cell_setting            triclinic 
loop_ 
_symmetry_equiv_pos_as_xyz 
  x,y,z 
_cell_length_a                    35.48145443 
_cell_length_b                    35.68809425119686 
_cell_length_c                    42.69532603392447 
_cell_angle_alpha                 89.37484668896319 
_cell_angle_beta                  90.38105895777147 
_cell_angle_gamma                 119.55718799643131 
loop_ 
_atom_site_label 
_atom_site_type_symbol 
_atom_site_fract_x 
_atom_site_fract_y 
_atom_site_fract_z 
_atom_site_charge 
O1          O  0.77824256  0.67130048  0.31333003    -0.72200
O2          O  0.89796518  0.72755276  0.33584029    -0.72500
O3          O  0.85205593  0.69621952  0.28184196    -0.72300
O4          O  0.82444980  0.70334085  0.36679406    -0.72300
O5          O  0.82021768  0.64158607  0.37676320    -0.72300
O6          O  0.84605997  0.63358471  0.29124223    -0.72300
O7          O  0.89314337  0.66544418  0.34440264    -0.72300
O8          O  0.77349947  0.60951699  0.32329305    -0.72400
V9          V  0.83809271  0.69840173  0.32457272     1.35200
V10         V  0.83334404  0.63876800  0.33379716     1.35200
C11         C  0.75563898  0.63056805  0.31357564     0.77000
C12         C  0.91573187  0.70607105  0.34499995     0.77000
C13         C  0.85193176  0.66294948  0.27175740     0.76900
C14         C  0.81932815  0.67454850  0.38651902     0.76900
O15         O  0.11085685  0.82841270  0.40062589    -0.72200
O16         O  0.22913167  0.88903410  0.42444710    -0.72500
O17         O  0.18526274  0.86867456  0.36910636    -0.72300
O18         O  0.15459060  0.84697969  0.45553228    -0.72300
O19         O  0.15338320  0.78608514  0.45233803    -0.72300
O20         O  0.19169654  0.81124233  0.36854345    -0.72300
O21         O  0.23141341  0.82938721  0.42529674    -0.72300
O22         O  0.11396515  0.76945187  0.39631503    -0.72400
V23         V  0.17011261  0.85721453  0.41240743     1.35200
V24         V  0.17272262  0.80024796  0.41061046     1.35200
C25         C  0.09257128  0.78914074  0.39332001     0.77000
C26         C  0.25000230  0.86959913  0.43030309     0.77000
C27         C  0.19167536  0.84208424  0.35383847     0.76900
C28         C  0.14863088  0.81250014  0.46876783     0.76900
O29         O  0.56022298  0.07111487  0.01094579    -0.72200
O30         O  0.44237613  0.00481428  0.48501425    -0.72500
O31         O  0.48337629  0.03643187  0.04035900    -0.72300
O32         O  0.51810886  0.03888445  0.45502258    -0.72300
O33         O  0.52019357  0.97965666  0.46193015    -0.72300
O34         O  0.48431598  0.97676310  0.04633538    -0.72300
O35         O  0.44387620  0.94512306  0.49110024    -0.72300
O36         O  0.56098617  0.01105467  0.01777278    -0.72400
V37         V  0.50128161  0.03830310  0.99797800     1.35200
V38         V  0.50244177  0.98090199  0.00421456     1.35200
C39         C  0.58031593  0.05165309  0.01937696     0.77000
C40         C  0.42338226  0.96424376  0.48287760     0.77000
C41         C  0.47796124  0.00551387  0.05810471     0.76900
C42         C  0.52296596  0.00890440  0.44357858     0.76900
O43         O  0.22137666  0.39072922  0.18221904    -0.72200
O44         O  0.10089531  0.32833582  0.16708884    -0.72500
O45         O  0.15145945  0.35985477  0.21872942    -0.72300
O46         O  0.17116566  0.35763319  0.13134943    -0.72300
O47         O  0.17445966  0.29893883  0.13852485    -0.72300
O48         O  0.14973562  0.29836154  0.22407968    -0.72300
O49         O  0.10138011  0.26784999  0.17136807    -0.72300
O50         O  0.22242834  0.33106082  0.19029664    -0.72400
V51         V  0.16112552  0.35793351  0.17502436     1.35200
V52         V  0.16187282  0.30016474  0.18104121     1.35200
C53         C  0.24229945  0.37192549  0.18967358     0.77000
C54         C  0.08115871  0.28790599  0.16461922     0.77000
C55         C  0.14906083  0.32995554  0.23632990     0.76900
C56         C  0.17553877  0.32725643  0.12018933     0.76900
O57         O  0.89097281  0.22526753  0.10528002    -0.72200
O58         O  0.77455934  0.17309480  0.07672314    -0.72500
O59         O  0.81392169  0.18754850  0.13322296    -0.72300
O60         O  0.85201628  0.21036895  0.04853916    -0.72300
O61         O  0.85249668  0.15027045  0.04719236    -0.72300
O62         O  0.80871502  0.12489345  0.13045035    -0.72300
O63         O  0.77333578  0.11191052  0.07265453    -0.72300
O64         O  0.88798859  0.16299643  0.10547182    -0.72400
V65         V  0.83281995  0.19790047  0.09087023     1.35200
V66         V  0.83071578  0.13868722  0.08894327     1.35200
C67         C  0.90873671  0.20283749  0.11135046     0.77000
C68         C  0.75444622  0.13385346  0.06912367     0.77000
C69         C  0.80524812  0.15245886  0.14667235     0.76900
C70         C  0.85842479  0.18405573  0.03297837     0.76900
O71         O  0.48501502  0.46179957  0.28940558    -0.72200
O72         O  0.51540918  0.48615302  0.20373706    -0.72500
O73         O  0.56016084  0.50344007  0.25819811    -0.72300
O74         O  0.44115666  0.44486119  0.23518582    -0.72300
O75         O  0.44071210  0.50538658  0.23600093    -0.72300
O76         O  0.55729684  0.56226164  0.26465738    -0.72300
O77         O  0.51809777  0.54787582  0.20838969    -0.72300
O78         O  0.47975721  0.51930969  0.29241982    -0.72400
V79         V  0.50055565  0.47524997  0.24671094     1.35200
V80         V  0.49901792  0.53260380  0.25033634     1.35200
C81         C  0.47639715  0.48595006  0.30566277     0.77000
C82         C  0.52088410  0.52073899  0.19122125     0.77000
C83         C  0.57865182  0.54256402  0.26623647     0.76900
C84         C  0.42099434  0.46538739  0.23068083     0.76900
O85         O  0.16746911  0.27199738  0.41904431    -0.72200
O86         O  0.11040610  0.33504672  0.43916088    -0.72500
O87         O  0.13042084  0.30879349  0.38586772    -0.72300
O88         O  0.14803221  0.29907870  0.47259512    -0.72300
O89         O  0.21157003  0.35510069  0.46928930    -0.72300
O90         O  0.18939975  0.37100062  0.38489726    -0.72300
O91         O  0.17243046  0.39384121  0.44110954    -0.72300
O92         O  0.22790226  0.33200201  0.41342104    -0.72400
V93         V  0.14019976  0.30478948  0.42920075     1.35200
V94         V  0.19915541  0.36192571  0.42722364     1.35200
C95         C  0.20684425  0.29142205  0.41086827     0.77000
C96         C  0.13176423  0.37487432  0.44492922     0.77000
C97         C  0.15776998  0.34124265  0.37050581     0.76900
C98         C  0.18283703  0.32568704  0.48597971     0.76900
O99         O  0.26920621  0.16969044  0.33893182    -0.72200
O100        O  0.32411128  0.10530791  0.31560720    -0.72500
O101        O  0.29134874  0.11805954  0.36910391    -0.72300
O102        O  0.30109844  0.15638564  0.28466659    -0.72300
O103        O  0.36475313  0.21073123  0.29441384    -0.72300
O104        O  0.35352941  0.17405659  0.37969350    -0.72300
O105        O  0.38640949  0.16036918  0.32673047    -0.72300
O106        O  0.33207291  0.22531815  0.34745919    -0.72400
V107        V  0.29762874  0.13847696  0.32715412     1.35200
V108        V  0.35793296  0.19155826  0.33689397     1.35200
C109        C  0.29130499  0.20790004  0.34884722     0.77000
C110        C  0.36499139  0.12241063  0.31656777     0.77000
C111        C  0.31980171  0.14058425  0.38904199     0.76900
C112        C  0.33550907  0.18850624  0.27477241     0.76900
O113        O  0.00066276  0.44458985  0.48803988    -0.72200
O114        O  0.94076169  0.50674139  0.00765871    -0.72500
O115        O  0.96984898  0.48699041  0.45449146    -0.72300
O116        O  0.97012336  0.46220839  0.04043260    -0.72300
O117        O  0.03063515  0.52198166  0.04658455    -0.72300
O118        O  0.03264368  0.54473501  0.45915425    -0.72300
O119        O  0.00285909  0.56553791  0.01141291    -0.72300
O120        O  0.06195844  0.50312717  0.49510547    -0.72400
V121        V  0.97110931  0.47669670  0.99776746     1.35200
V122        V  0.03058977  0.53292107  0.00299526     1.35200
C123        C  0.04171494  0.46384010  0.48774169     0.77000
C124        C  0.96210888  0.54656084  0.01377434     0.77000
C125        C  0.00229011  0.51821044  0.44182314     0.76900
C126        C  0.99973548  0.48805509  0.05828914     0.76900
O127        O  0.60576463  0.83654609  0.17400406    -0.72200
O128        O  0.66592874  0.77617288  0.15533717    -0.72500
O129        O  0.63844750  0.79643635  0.20823466    -0.72300
O130        O  0.63407683  0.81691378  0.12130381    -0.72300
O131        O  0.69385044  0.87791908  0.12561483    -0.72300
O132        O  0.70110892  0.85481710  0.21100613    -0.72300
O133        O  0.72713160  0.83612615  0.15692209    -0.72300
O134        O  0.66703766  0.89574718  0.17932975    -0.72400
V135        V  0.63720673  0.80762678  0.16480474     1.35200
V136        V  0.69610654  0.86494873  0.16818038     1.35200
C137        C  0.62608099  0.87598708  0.18109759     0.77000
C138        C  0.70648687  0.79613100  0.15134406     0.77000
C139        C  0.67001631  0.82321258  0.22448493     0.76900
C140        C  0.66405999  0.85052161  0.10861876     0.76900
O141        O  0.77625761  0.67295959  0.09386433    -0.72200
O142        O  0.83488209  0.61563063  0.06396758    -0.72500
O143        O  0.81632769  0.63413247  0.12102481    -0.72300
O144        O  0.79555334  0.65477668  0.03684979    -0.72300
O145        O  0.85667673  0.71390687  0.03615111    -0.72300
O146        O  0.87518939  0.69545020  0.12165947    -0.72300
O147        O  0.89595183  0.67577411  0.06561494    -0.72300
O148        O  0.83642773  0.73395184  0.09237340    -0.72400
V149        V  0.80690714  0.64558016  0.07894580     1.35200
V150        V  0.86495110  0.70366870  0.07891145     1.35200
C151        C  0.79640821  0.71309684  0.09860458     0.77000
C152        C  0.87531834  0.63598304  0.05953761     0.77000
C153        C  0.84869050  0.66165120  0.13628804     0.76900
C154        C  0.82313619  0.68714964  0.02149884     0.76900
O155        O  0.44077651  0.00178184  0.26580999    -0.72200
O156        O  0.50098204  0.94423914  0.24030125    -0.72500
O157        O  0.48648586  0.97148233  0.29580628    -0.72300
O158        O  0.45577608  0.97560059  0.21096621    -0.72300
O159        O  0.51483090  0.03670666  0.20465900    -0.72300
O160        O  0.54504345  0.03248056  0.28994134    -0.72300
O161        O  0.55995886  0.00548266  0.23465919    -0.72300
O162        O  0.49939049  0.06355204  0.25985188    -0.72400
V163        V  0.47225127  0.97446803  0.25316561     1.35200
V164        V  0.52869663  0.03345474  0.24741904     1.35200
C165        C  0.45980048  0.04230200  0.26748183     0.77000
C166        C  0.54030885  0.96487685  0.23214086     0.77000
C167        C  0.52048049  0.00163969  0.30786544     0.76900
C168        C  0.48076241  0.00612747  0.19302852     0.76900
O169        O  0.39161991  0.22128866  0.06761009    -0.72200
O170        O  0.33178053  0.10548111  0.09720696    -0.72500
O171        O  0.35229558  0.14383806  0.04040201    -0.72300
O172        O  0.37051559  0.18309947  0.12452493    -0.72300
O173        O  0.30756590  0.17849921  0.12455451    -0.72300
O174        O  0.29506207  0.15023841  0.03832190    -0.72300
O175        O  0.27059372  0.10507195  0.09262088    -0.72300
O176        O  0.33199474  0.22412106  0.07007980    -0.72400
V177        V  0.36046350  0.16346194  0.08245254     1.35200
V178        V  0.30244110  0.16454424  0.08139164     1.35200
C179        C  0.37205235  0.24251825  0.06381756     0.77000
C180        C  0.29095931  0.08538770  0.09969828     0.77000
C181        C  0.32108569  0.14147207  0.02444887     0.76900
C182        C  0.34118096  0.18543463  0.13958276     0.76900
O183        O  0.50062251  0.43734931  0.00734831    -0.72200
O184        O  0.55320336  0.55351370  0.48419046    -0.72500
O185        O  0.54310780  0.51160581  0.03884158    -0.72300
O186        O  0.50935953  0.47945390  0.45323046    -0.72300
O187        O  0.45043597  0.48318148  0.45801771    -0.72300
O188        O  0.48341658  0.51326500  0.04404636    -0.72300
O189        O  0.49429182  0.55711735  0.48858122    -0.72300
O190        O  0.44087754  0.43906769  0.01356157    -0.72400
V191        V  0.52845306  0.49703611  0.99608314     1.35200
V192        V  0.47070736  0.49811181  0.00138125     1.35200
C193        C  0.46115124  0.41827065  0.01545093     0.77000
C194        C  0.53408645  0.57533481  0.48156859     0.77000
C195        C  0.51763505  0.51706869  0.05630186     0.76900
C196        C  0.47644906  0.47850469  0.44066905     0.76900
O197        O  0.15118918  0.84149640  0.20626678    -0.72200
O198        O  0.12745166  0.81528551  0.12065438    -0.72500
O199        O  0.11319020  0.76870288  0.17384336    -0.72300
O200        O  0.16701468  0.88838048  0.15278017    -0.72300
O201        O  0.22886599  0.89013210  0.14929065    -0.72300
O202        O  0.17451154  0.77023562  0.16718468    -0.72300
O203        O  0.19002828  0.81911700  0.11468204    -0.72300
O204        O  0.21208214  0.84123196  0.20188493    -0.72400
V205        V  0.14094997  0.82853470  0.16329589     1.35200
V206        V  0.20023140  0.83019739  0.15833868     1.35200
C207        C  0.18425574  0.84347132  0.21897588     0.77000
C208        C  0.15518819  0.81451799  0.10282883     0.77000
C209        C  0.13509055  0.74937534  0.17497488     0.76900
C210        C  0.20713269  0.90932248  0.14652600     0.76900
O211        O  0.06749195  0.55601025  0.23615880    -0.72200
O212        O  0.00324322  0.43956102  0.26522218    -0.72500
O213        O  0.02642050  0.47895780  0.20918613    -0.72300
O214        O  0.04472989  0.51632117  0.29317668    -0.72300
O215        O  0.98292421  0.51527793  0.29285671    -0.72300
O216        O  0.97134254  0.48921487  0.20629006    -0.72300
O217        O  0.94374556  0.44227746  0.26010470    -0.72300
O218        O  0.00936478  0.56140530  0.23889788    -0.72400
V219        V  0.03446014  0.49792233  0.25100219     1.35200
V220        V  0.97787911  0.50191219  0.24961550     1.35200
C221        C  0.04894582  0.57821979  0.23166421     0.77000
C222        C  0.96236421  0.42097454  0.26752786     0.77000
C223        C  0.99755482  0.48039596  0.19274267     0.76900
C224        C  0.01559323  0.51941052  0.30781073     0.76900
O225        O  0.78688841  0.15629619  0.30077511    -0.72200
O226        O  0.82087466  0.18402791  0.38588615    -0.72500
O227        O  0.83429172  0.22965222  0.33124466    -0.72300
O228        O  0.77386580  0.11055171  0.35439340    -0.72300
O229        O  0.83194740  0.10669113  0.34627509    -0.72300
O230        O  0.89218888  0.22539043  0.32298936    -0.72300
O231        O  0.87890935  0.17983241  0.37733304    -0.72300
O232        O  0.84478880  0.15193288  0.29196759    -0.72400
V233        V  0.80516416  0.17010657  0.34302724     1.35200
V234        V  0.86086057  0.16608922  0.33479836     1.35200
C235        C  0.81074011  0.15090065  0.28162738     0.77000
C236        C  0.85468355  0.18485832  0.39646732     0.77000
C237        C  0.87305624  0.24735283  0.32155726     0.76900
C238        C  0.79284549  0.08837752  0.35504556     0.76900
O239        O  0.62802539  0.81579906  0.37229260    -0.72200
O240        O  0.63781336  0.84720017  0.45734001    -0.72500
O241        O  0.66347259  0.89038457  0.40300619    -0.72300
O242        O  0.60253197  0.77182050  0.42715996    -0.72300
O243        O  0.66332930  0.77129740  0.42922122    -0.72300
O244        O  0.72440928  0.89035240  0.40747527    -0.72300
O245        O  0.69703965  0.84446312  0.46122895    -0.72300
O246        O  0.68997919  0.81735770  0.37487045    -0.72400
V247        V  0.63404835  0.83110608  0.41499119     1.35200
V248        V  0.69248394  0.83074268  0.41812229     1.35200
C249        C  0.65857700  0.81412204  0.35864183     0.77000
C250        C  0.66876546  0.85090911  0.47410912     0.77000
C251        C  0.70439004  0.91050549  0.40085925     0.76900
C252        C  0.62272140  0.75153163  0.43304683     0.76900
C253        C  0.78056426  0.01182592  0.35458701    -0.02300
C254        C  0.77036486  0.04262490  0.36679714     0.07400
C255        C  0.73959625  0.02967041  0.39142607    -0.02400
C256        C  0.71931741  0.98699620  0.40318042    -0.02400
C257        C  0.72806923  0.95613995  0.38989120     0.00300
C258        C  0.75872039  0.96874505  0.36548975    -0.02600
Br259      Br  0.76916649  0.92635712  0.34539276    -0.01200
Br260      Br  0.82406312  0.02718797  0.32256006    -0.01200
Br261      Br  0.68168056  0.97138755  0.43920770    -0.01200
Br262      Br  0.72652516  0.07045489  0.41104340    -0.01200
C263        C  0.88725464  0.32454289  0.31876519    -0.02300
C264        C  0.89493690  0.29177840  0.30730190     0.07400
C265        C  0.92239299  0.30120447  0.28084647    -0.02400
C266        C  0.94356695  0.34304282  0.26750087    -0.02400
C267        C  0.93731153  0.37600581  0.27993833     0.07500
C268        C  0.90834526  0.36627414  0.30523296    -0.02600
Br269      Br  0.89895765  0.41077989  0.32271024    -0.01200
Br270      Br  0.84871795  0.31355753  0.35361232    -0.01200
Br271      Br  0.97911221  0.35455660  0.23063792    -0.01200
Br272      Br  0.92875255  0.25637730  0.26060907    -0.01200
C273        C  0.05178868  0.63255376  0.19205210    -0.02300
C274        C  0.07203376  0.62177119  0.21656838     0.07400
C275        C  0.11482504  0.65210046  0.22535627    -0.02400
C276        C  0.13639294  0.69312006  0.21075161    -0.02400
C277        C  0.11544586  0.70425385  0.18702998     0.07500
C278        C  0.07379642  0.67316493  0.17705036    -0.02600
Br279      Br  0.04831899  0.68534375  0.14102115    -0.01200
Br280      Br  0.99418489  0.59165117  0.17780488    -0.01200
Br281      Br  0.19375261  0.73470638  0.22502027    -0.01200
Br282      Br  0.14316974  0.63892255  0.25903784    -0.01200
C283        C  0.58809583  0.63253341  0.44521423    -0.02300
C284        C  0.55738293  0.62060920  0.46963958     0.07400
C285        C  0.54856460  0.65203981  0.48205978    -0.02400
C286        C  0.56884965  0.69423795  0.46948142    -0.02400
C287        C  0.59978539  0.70627775  0.44521549     0.07500
C288        C  0.61012091  0.67533552  0.43390398    -0.02600
Br289      Br  0.65425671  0.69065241  0.40254519    -0.01200
Br290      Br  0.59873127  0.59007520  0.42535551    -0.01200
Br291      Br  0.55607045  0.73610079  0.48752113    -0.01200
Br292      Br  0.51106343  0.63868302  0.51798164    -0.01200
C293        C  0.24159766  0.02857207  0.13799365    -0.02300
C294        C  0.26791786  0.04010927  0.11100345     0.07400
C295        C  0.27365102  0.00861064  0.09553026    -0.02400
C296        C  0.25395706  0.96605343  0.10724577    -0.02400
C297        C  0.22803546  0.95446839  0.13458681     0.07500
C298        C  0.22184044  0.98595871  0.14980204    -0.02600
Br299      Br  0.18868732  0.97165548  0.18804124    -0.01200
Br300      Br  0.23427885  0.07169997  0.15977864    -0.01200
Br301      Br  0.26135866  0.92349454  0.08458798    -0.01200
Br302      Br  0.30671397  0.02329638  0.05712853    -0.01200
C303        C  0.44302241  0.34029168  0.01285958    -0.02300
C304        C  0.43929621  0.37330048  0.02807623     0.07400
C305        C  0.41453084  0.36318502  0.05591924    -0.02400
C306        C  0.39353728  0.32071194  0.06796906    -0.02400
C307        C  0.39541028  0.28750533  0.05175596     0.07500
C308        C  0.41997520  0.29742763  0.02398461    -0.02600
Br309      Br  0.41982653  0.25184402  0.99980889    -0.01200
Br310      Br  0.47920525  0.35288860  0.97654909    -0.01200
Br311      Br  0.36467696  0.30848859  0.10793140    -0.01200
Br312      Br  0.41143385  0.40782205  0.07910467    -0.01200
C313        C  0.66578216  0.78441691  0.27454090    -0.02300
C314        C  0.66865885  0.82046788  0.25871427     0.07400
C315        C  0.66793171  0.85376195  0.27562789    -0.02400
C316        C  0.66052798  0.84921479  0.30790564    -0.02400
C317        C  0.66004582  0.81435460  0.32420986     0.07500
C318        C  0.66385968  0.78252984  0.30746804    -0.02600
Br319      Br  0.66571399  0.73609117  0.32909913    -0.01200
Br320      Br  0.66604621  0.73864502  0.25112971    -0.01200
Br321      Br  0.65120026  0.89152370  0.32912893    -0.01200
Br322      Br  0.67741422  0.90627593  0.25507618    -0.01200
C323        C  0.62917562  0.85018127  0.05772290    -0.02300
C324        C  0.66599438  0.85650296  0.07450831     0.07400
C325        C  0.70478717  0.86738588  0.05857311    -0.02400
C326        C  0.70637198  0.87073739  0.02582282    -0.02400
C327        C  0.66804418  0.85920013  0.00848984     0.07500
C328        C  0.62992641  0.85149304  0.02479378    -0.02600
Br329      Br  0.58228950  0.84847907  0.50354957    -0.01200
Br330      Br  0.57758255  0.83987217  0.08006774    -0.01200
Br331      Br  0.76233366  0.89377435  0.00567351    -0.01200
Br332      Br  0.75510133  0.87343991  0.08101804    -0.01200
C333        C  0.76643235  0.77780884  0.15320367    -0.02300
C334        C  0.72881914  0.77372799  0.13860074     0.07400
C335        C  0.71359297  0.74971470  0.11067133    -0.02400
C336        C  0.73622656  0.73067465  0.09728867    -0.02400
C337        C  0.77377553  0.73476214  0.11191943     0.07500
C338        C  0.78869499  0.75820990  0.14001485    -0.02600
Br339      Br  0.83841188  0.76168158  0.16146354    -0.01200
Br340      Br  0.78621342  0.80827481  0.19226295    -0.01200
Br341      Br  0.71720483  0.70109553  0.05777223    -0.01200
Br342      Br  0.66281854  0.74428200  0.08951214    -0.01200
C343        C  0.58932082  0.95889203  0.19233929    -0.02300
C344        C  0.56215826  0.94201406  0.21893918     0.07400
C345        C  0.55436306  0.90211348  0.23178637    -0.02400
C346        C  0.57375474  0.87976303  0.21848681    -0.02400
C347        C  0.60266997  0.89783135  0.19299426     0.07500
C348        C  0.61038442  0.93750743  0.18003839    -0.02600
Br349      Br  0.64824274  0.96163553  0.14429891    -0.01200
Br350      Br  0.59500283  0.00927284  0.17066293    -0.01200
Br351      Br  0.56191951  0.82506637  0.23653950    -0.01200
Br352      Br  0.51871795  0.87837499  0.26866675    -0.01200
C353        C  0.01268212  0.48689086  0.35969493    -0.02300
C354        C  0.01692135  0.52235439  0.34210031     0.07400
C355        C  0.01749441  0.55745726  0.35729892    -0.02400
C356        C  0.01309018  0.55666308  0.39013742    -0.02400
C357        C  0.00654784  0.52013338  0.40748482     0.07500
C358        C  0.00561782  0.48491934  0.39200228    -0.02600
Br359      Br  0.99390619  0.43291138  0.41438996    -0.01200
Br360      Br  0.01588378  0.44012716  0.33982064    -0.01200
Br361      Br  0.01289564  0.60397572  0.41107642    -0.01200
Br362      Br  0.02591082  0.60697487  0.33315593    -0.01200
C363        C  0.95853178  0.46693754  0.10863587    -0.02300
C364        C  0.99744924  0.47962947  0.09221712     0.07400
C365        C  0.03482080  0.48658657  0.10854457    -0.02400
C366        C  0.03512829  0.48634851  0.14142947    -0.02400
C367        C  0.99644408  0.47513441  0.15825041     0.07500
C368        C  0.95762660  0.46299915  0.14142856    -0.02600
Br369      Br  0.90245821  0.44023363  0.16262702    -0.01200
Br370      Br  0.90683400  0.45821671  0.08683856    -0.01200
Br371      Br  0.09040364  0.50557187  0.16201069    -0.01200
Br372      Br  0.08543037  0.49515816  0.08566149    -0.01200
C373        C  0.94982752  0.58840374  0.05523648    -0.02300
C374        C  0.94034912  0.57011879  0.02501631     0.07400
C375        C  0.90978598  0.57398734  0.00604830    -0.02400
C376        C  0.88871560  0.59589475  0.01722442    -0.02400
C377        C  0.89786470  0.61367438  0.04753102     0.07500
C378        C  0.92830238  0.60974536  0.06651757    -0.02600
Br379      Br  0.93833374  0.63137854  0.10875555    -0.01200
Br380      Br  0.99093854  0.58281510  0.08194642    -0.01200
Br381      Br  0.84840692  0.60284712  0.99059186    -0.01200
Br382      Br  0.89774839  0.54970372  0.46380346    -0.01200
C383        C  0.27968108  0.13552964  0.43797948    -0.02300
C384        C  0.31211925  0.13071666  0.42288270     0.07400
C385        C  0.33925246  0.12051439  0.44063797    -0.02400
C386        C  0.33850994  0.12131237  0.47363112    -0.02400
C387        C  0.30963990  0.13186063  0.48922562     0.07500
C388        C  0.27836459  0.13641122  0.47090012    -0.02600
Br389      Br  0.23398651  0.14596171  0.48924717    -0.01200
Br390      Br  0.23715231  0.14184159  0.41344434    -0.01200
Br391      Br  0.39512148  0.12304510  0.99400878    -0.01200
Br392      Br  0.37488969  0.10209193  0.41938752    -0.01200
C393        C  0.31667129  0.20551715  0.18942633    -0.02300
C394        C  0.34477214  0.19363410  0.17419107     0.07400
C395        C  0.37404254  0.18652703  0.19294413    -0.02400
C396        C  0.37440956  0.19066484  0.22574741    -0.02400
C397        C  0.34257429  0.19677702  0.24065354     0.07500
C398        C  0.31419972  0.20483764  0.22242561    -0.02600
Br399      Br  0.27209748  0.21539079  0.24300128    -0.01200
Br400      Br  0.28170667  0.22400502  0.16611387    -0.01200
Br401      Br  0.41777016  0.18588772  0.25036107    -0.01200
Br402      Br  0.41132634  0.16665147  0.17547883    -0.01200
C403        C  0.37395396  0.07541856  0.27683659    -0.02300
C404        C  0.38797662  0.10001878  0.30467650     0.07400
C405        C  0.42677999  0.10668184  0.31926772    -0.02400
C406        C  0.45043011  0.08832912  0.30671591    -0.02400
C407        C  0.43625779  0.06374977  0.27924673     0.07500
C408        C  0.39812964  0.05747578  0.26425244    -0.02600
Br409      Br  0.38060489  0.02639542  0.22525328    -0.01200
Br410      Br  0.32401062  0.06905424  0.25382973    -0.01200
Br411      Br  0.50149376  0.09541803  0.32818653    -0.01200
Br412      Br  0.44837161  0.14044461  0.35687847    -0.01200
C413        C  0.12125796  0.43983983  0.44488091    -0.02300
C414        C  0.10957512  0.39825867  0.45645953     0.07400
C415        C  0.07639739  0.37897635  0.47926765    -0.02400
C416        C  0.05443136  0.40045740  0.48959936    -0.02400
C417        C  0.06564515  0.44162533  0.47764781     0.07500
C418        C  0.09928533  0.46127046  0.45527555    -0.02600
Br419      Br  0.11363747  0.51647313  0.43683129    -0.01200
Br420      Br  0.16610011  0.46724693  0.41357528    -0.01200
Br421      Br  0.00473541  0.37183849  0.01947425    -0.01200
Br422      Br  0.06254658  0.32424409  0.49827496    -0.01200
C423        C  0.26845081  0.27588108  0.40637765    -0.02300
C424        C  0.22719689  0.26792495  0.39649859     0.07400
C425        C  0.20695262  0.24020189  0.37090618    -0.02400
C426        C  0.22866851  0.22244297  0.35437056    -0.02400
C427        C  0.27014877  0.23035855  0.36411975     0.07500
C428        C  0.28949891  0.25665846  0.39078143    -0.02600
Br429      Br  0.34328207  0.26425179  0.40831885    -0.01200
Br430      Br  0.29509446  0.31111670  0.44278869    -0.01200
Br431      Br  0.20172236  0.18898612  0.31732778    -0.01200
Br432      Br  0.14972133  0.22734397  0.35737436    -0.01200
C433        C  0.46924753  0.44379689  0.35573245    -0.02300
C434        C  0.46611246  0.47736683  0.33986181     0.07400
C435        C  0.45796264  0.50579318  0.35785753    -0.02400
C436        C  0.46161810  0.50607887  0.39068315    -0.02400
C437        C  0.47008216  0.47585134  0.40623110     0.07500
C438        C  0.47257191  0.44400261  0.38865529    -0.02600
Br439      Br  0.48049375  0.40031988  0.40947782    -0.01200
Br440      Br  0.46564638  0.39505193  0.33357629    -0.01200
Br441      Br  0.45931115  0.55134526  0.41371100    -0.01200
Br442      Br  0.43850977  0.54273685  0.33869025    -0.01200
C443        C  0.55232521  0.51341591  0.14075537    -0.02300
C444        C  0.52712844  0.52750319  0.15693607     0.07400
C445        C  0.50423333  0.54399262  0.13981921    -0.02400
C446        C  0.50560169  0.54514666  0.10691873    -0.02400
C447        C  0.52598354  0.52566401  0.09052906     0.07500
C448        C  0.55074473  0.51108930  0.10778658    -0.02600
Br449      Br  0.58077266  0.48514116  0.08755905    -0.01200
Br450      Br  0.58945694  0.49743357  0.16383864    -0.01200
Br451      Br  0.48016947  0.57500534  0.08500083    -0.01200
Br452      Br  0.46659625  0.56080108  0.16066640    -0.01200
C453        C  0.86799908  0.15613191  0.44687064    -0.02300
C454        C  0.86381561  0.18862192  0.43076247     0.07400
C455        C  0.86602605  0.22315544  0.44785118    -0.02400
C456        C  0.86927454  0.22383168  0.48087701    -0.02400
C457        C  0.86748319  0.18823031  0.49755348     0.07500
C458        C  0.87059772  0.15620740  0.47992280    -0.02600
Br459      Br  0.88019732  0.11262694  0.49984981    -0.01200
Br460      Br  0.86656483  0.10905084  0.42386423    -0.01200
Br461      Br  0.87326884  0.27518928  0.00243029    -0.01200
Br462      Br  0.86495499  0.27003249  0.42581466    -0.01200
C463        C  0.79082832  0.17689377  0.19868304    -0.02300
C464        C  0.79529610  0.14565708  0.18114867     0.07400
C465        C  0.79541882  0.11090817  0.19778899    -0.02400
C466        C  0.79825055  0.11163052  0.23078640    -0.02400
C467        C  0.80058366  0.14634722  0.24762044     0.07500
C468        C  0.79476302  0.17788518  0.23159301    -0.02600
Br469      Br  0.79522084  0.22466904  0.25437228    -0.01200
Br470      Br  0.77726738  0.21775643  0.17867710    -0.01200
Br471      Br  0.79745346  0.06415151  0.25324562    -0.01200
Br472      Br  0.79113370  0.06119528  0.17668541    -0.01200
C473        C  0.11617679  0.33320561  0.28735830    -0.02300
C474        C  0.15037621  0.33355879  0.27059949     0.07400
C475        C  0.18675937  0.33698543  0.28672131    -0.02400
C476        C  0.19034281  0.34302142  0.31912920    -0.02400
C477        C  0.15584650  0.34186965  0.33613271     0.07500
C478        C  0.11854032  0.33655061  0.32027268    -0.02600
Br479      Br  0.07125601  0.33466767  0.34355105    -0.01200
Br480      Br  0.06488549  0.32449679  0.26541874    -0.01200
Br481      Br  0.24239527  0.35100130  0.33991286    -0.01200
Br482      Br  0.23141926  0.33141210  0.26509251    -0.01200
C483        C  0.21335995  0.35609155  0.03653855    -0.02300
C484        C  0.18158078  0.31889853  0.02050691     0.07400
C485        C  0.15222697  0.28233396  0.03831687    -0.02400
C486        C  0.15132219  0.28478187  0.07108493    -0.02400
C487        C  0.17977532  0.32347656  0.08636904     0.07500
C488        C  0.21177855  0.35835185  0.06931359    -0.02600
Br489      Br  0.25418188  0.40905764  0.09126144    -0.01200
Br490      Br  0.26687336  0.41012561  0.51602156    -0.01200
Br491      Br  0.10884839  0.23543874  0.09472756    -0.01200
Br492      Br  0.11333584  0.22782527  0.01880158    -0.01200
C493        C  0.98724869  0.25691453  0.10848372    -0.02300
C494        C  0.95280499  0.22321008  0.12493296     0.07400
C495        C  0.96019228  0.21114591  0.15500211    -0.02400
C496        C  0.00211918  0.23234230  0.16826690    -0.02400
C497        C  0.03673082  0.26562795  0.15152154     0.07500
C498        C  0.02894633  0.27826782  0.12172629    -0.02600
Br499      Br  0.07521097  0.32459304  0.09834180    -0.01200
Br500      Br  0.97737655  0.27299440  0.06718296    -0.01200
Br501      Br  0.01151766  0.21843119  0.21035093    -0.01200
Br502      Br  0.91245330  0.16764219  0.17892320    -0.01200
C503        C  0.36330191  0.41281868  0.19462060    -0.02300
C504        C  0.37565125  0.44310411  0.21909900     0.07400
C505        C  0.34448819  0.45202236  0.23222257    -0.02400
C506        C  0.30117984  0.42962299  0.22188846    -0.02400
C507        C  0.28843632  0.39749349  0.19878659     0.07500
C508        C  0.31978937  0.38994575  0.18469509    -0.02600
Br509      Br  0.30352363  0.35047730  0.15017071    -0.01200
Br510      Br  0.40625446  0.40451832  0.17295612    -0.01200
Br511      Br  0.25914296  0.44213926  0.24064342    -0.01200
Br512      Br  0.36000517  0.49334420  0.26556419    -0.01200
C513        C  0.55661910  0.04277747  0.39146362    -0.02300
C514        C  0.52839555  0.00605402  0.40921989     0.07400
C515        C  0.50372735  0.96631166  0.39375108    -0.02400
C516        C  0.50465670  0.96410037  0.36083093    -0.02400
C517        C  0.52908578  0.00195224  0.34253609     0.07500
C518        C  0.55792805  0.04061836  0.35843115    -0.02600
Br519      Br  0.60082328  0.09112738  0.33615683    -0.01200
Br520      Br  0.59413704  0.09625458  0.41252250    -0.01200
Br521      Br  0.47356680  0.90788910  0.34165481    -0.01200
Br522      Br  0.46519397  0.91456693  0.41702890    -0.01200
C523        C  0.45533535  0.96518097  0.10961651    -0.02300
C524        C  0.46766706  0.00371461  0.09237016     0.07400
C525        C  0.47518872  0.04100443  0.10912985    -0.02400
C526        C  0.47783026  0.04141122  0.14221775    -0.02400
C527        C  0.47188698  0.00450133  0.15886851     0.07500
C528        C  0.45912262  0.96595964  0.14242841    -0.02600
Br529      Br  0.45098464  0.91449320  0.16405075    -0.01200
Br530      Br  0.43071361  0.90992094  0.08917638    -0.01200
Br531      Br  0.48933098  0.09263067  0.16483123    -0.01200
Br532      Br  0.48089645  0.09166600  0.08785710    -0.01200
C533        C  0.70108183  0.09398627  0.02648613    -0.02300
C534        C  0.71013848  0.11425108  0.05595788     0.07400
C535        C  0.67678386  0.11590261  0.07262758    -0.02400
C536        C  0.63438876  0.09618138  0.06035674    -0.02400
C537        C  0.62527462  0.07535713  0.03116841     0.07500
C538        C  0.65879075  0.07483761  0.01410487    -0.02600
Br539      Br  0.64700975  0.04593113  0.47352019    -0.01200
Br540      Br  0.74688044  0.09389401  0.00238741    -0.01200
Br541      Br  0.58836122  0.09560420  0.08442230    -0.01200
Br542      Br  0.68849445  0.14311019  0.11310289    -0.01200
C543        C  0.22218859  0.87978780  0.30196897    -0.02300
C544        C  0.19281721  0.84288903  0.31919593     0.07400
C545        C  0.16115401  0.80641448  0.30304074    -0.02400
C546        C  0.15706584  0.80810291  0.27050933    -0.02400
C547        C  0.18766954  0.84408446  0.25328295     0.07500
C548        C  0.22053352  0.87978277  0.26896180    -0.02600
Br549      Br  0.26134502  0.92950625  0.24516050    -0.01200
Br550      Br  0.26530722  0.92997384  0.32298797    -0.01200
Br551      Br  0.10782128  0.76136186  0.25011573    -0.01200
Br552      Br  0.12177234  0.75367755  0.32485338    -0.01200
C553        C  0.13150101  0.83638897  0.02016271    -0.02300
C554        C  0.14131790  0.80876824  0.00271526     0.07400
C555        C  0.14792586  0.77746141  0.01919237    -0.02400
C556        C  0.15127948  0.77871505  0.05209559    -0.02400
C557        C  0.14761912  0.81043916  0.06877205     0.07500
C558        C  0.13632919  0.83836868  0.05288872    -0.02600
Br559      Br  0.13079501  0.88213966  0.07543205    -0.01200
Br560      Br  0.10853941  0.86987454  0.00019640    -0.01200
Br561      Br  0.15994109  0.73628298  0.07472222    -0.01200
Br562      Br  0.15456107  0.73039370  0.49941000    -0.01200
C563        C  0.32598072  0.93280454  0.43002486    -0.02300
C564        C  0.29454289  0.89351791  0.44366080     0.07400
C565        C  0.30509509  0.87881649  0.47145468    -0.02400
C566        C  0.34689422  0.90222322  0.48466140    -0.02400
C567        C  0.37891049  0.94005814  0.46983364     0.07500
C568        C  0.36834042  0.95491190  0.44218361    -0.02600
Br569      Br  0.41242392  0.00409543  0.41937415    -0.01200
Br570      Br  0.31153907  0.95787309  0.39515953    -0.01200
Br571      Br  0.35943856  0.88501154  0.02230895    -0.01200
Br572      Br  0.26116418  0.82921428  0.49356153    -0.01200
C573        C  0.77931039  0.64990211  0.43767776    -0.02300
C574        C  0.81516372  0.68054448  0.42048525     0.07400
C575        C  0.84795426  0.71669591  0.43605568    -0.02400
C576        C  0.84673781  0.72021372  0.46889248    -0.02400
C577        C  0.81393384  0.68605344  0.48692123     0.07500
C578        C  0.77828887  0.65251820  0.47060782    -0.02600
Br579      Br  0.72815584  0.61944049  0.99210168    -0.01200
Br580      Br  0.73070255  0.60495613  0.41578614    -0.01200
Br581      Br  0.88943598  0.77344621  0.48795822    -0.01200
Br582      Br  0.89659885  0.76041023  0.41270159    -0.01200
C583        C  0.89144022  0.68613114  0.18735310    -0.02300
C584        C  0.85371133  0.65596346  0.17087653     0.07400
C585        C  0.81935930  0.62266664  0.18859694    -0.02400
C586        C  0.82036642  0.62358973  0.22167131    -0.02400
C587        C  0.85523962  0.65744661  0.23759766     0.07500
C588        C  0.89147445  0.68747792  0.22041346    -0.02600
Br589      Br  0.94184375  0.72986994  0.24251180    -0.01200
Br590      Br  0.94471634  0.72446343  0.16570010    -0.01200
Br591      Br  0.77231834  0.57937110  0.24522115    -0.01200
Br592      Br  0.77000216  0.57475920  0.16894339    -0.01200
C593        C  0.67846979  0.56806316  0.31481990    -0.02300
C594        C  0.71001923  0.60793696  0.30157168     0.07400
C595        C  0.69813638  0.62486118  0.27543908    -0.02400
C596        C  0.65522914  0.60346665  0.26396051    -0.02400
C597        C  0.62388256  0.56460448  0.27789698     0.07500
C598        C  0.63565176  0.54693362  0.30325670    -0.02600
Br599      Br  0.59230463  0.49450629  0.32335988    -0.01200
Br600      Br  0.69253310  0.54109037  0.34887947    -0.01200
Br601      Br  0.63981492  0.62607044  0.22775009    -0.01200
Br602      Br  0.74098693  0.67489046  0.25273621    -0.01200
C603        C  0.99372533  0.76703743  0.34427177    -0.02300
C604        C  0.96123710  0.72759430  0.35729006     0.07400
C605        C  0.97229030  0.70934672  0.38309777    -0.02400
C606        C  0.01503125  0.72967592  0.39498123    -0.02400
C607        C  0.04760507  0.76752461  0.38078615     0.07500
C608        C  0.03680646  0.78597223  0.35527397    -0.02600
Br609      Br  0.08155166  0.83650979  0.33421410    -0.01200
Br610      Br  0.98029895  0.79646965  0.31157816    -0.01200
Br611      Br  0.02835479  0.70794602  0.43260051    -0.01200
Br612      Br  0.92862558  0.65855571  0.40462780    -0.01200
O613        O  0.77970270  0.67536979  0.81291833    -0.72200
O614        O  0.89942737  0.73012296  0.83504157    -0.72500
O615        O  0.85304199  0.69821774  0.78137901    -0.72300
O616        O  0.82662036  0.70794690  0.86621339    -0.72300
O617        O  0.82087312  0.64569126  0.87682231    -0.72300
O618        O  0.84620944  0.63543675  0.79166760    -0.72300
O619        O  0.89344653  0.66772578  0.84466075    -0.72300
O620        O  0.77380140  0.61322445  0.82345534    -0.72400
V621        V  0.83956733  0.70169398  0.82402966     1.35200
V622        V  0.83369425  0.64175205  0.83400867     1.35200
C623        C  0.75652831  0.63469501  0.81340374     0.77000
C624        C  0.91660799  0.70831940  0.84465642     0.77000
C625        C  0.85240619  0.66447622  0.77179882     0.76900
C626        C  0.82107728  0.67932982  0.88624456     0.76900
O627        O  0.11124657  0.83084602  0.89987388    -0.72200
O628        O  0.22931280  0.89238981  0.92368480    -0.72500
O629        O  0.18562800  0.87120939  0.86839420    -0.72300
O630        O  0.15488507  0.85015598  0.95480531    -0.72300
O631        O  0.15478318  0.78980499  0.95203152    -0.72300
O632        O  0.19199756  0.81371180  0.86806075    -0.72300
O633        O  0.23230805  0.83311634  0.92443628    -0.72300
O634        O  0.11468512  0.77197668  0.89626441    -0.72400
V635        V  0.17041850  0.86008927  0.91166204     1.35200
V636        V  0.17353041  0.80335718  0.91019551     1.35200
C637        C  0.09316010  0.79147405  0.89293626     0.77000
C638        C  0.25051382  0.87329780  0.92943772     0.77000
C639        C  0.19196182  0.84445636  0.85327754     0.76900
C640        C  0.14963302  0.81609448  0.96830103     0.76900
O641        O  0.56019936  0.06835508  0.51081068    -0.72200
O642        O  0.44247712  0.00801007  0.98497763    -0.72500
O643        O  0.48350930  0.03336533  0.54026150    -0.72300
O644        O  0.51833323  0.04170455  0.95515675    -0.72300
O645        O  0.52072063  0.98270394  0.96232851    -0.72300
O646        O  0.48537921  0.97420607  0.54624005    -0.72300
O647        O  0.44384826  0.94822207  0.99071348    -0.72300
O648        O  0.56142024  0.00844660  0.51707361    -0.72400
V649        V  0.50123982  0.03534896  0.49787728     1.35200
V650        V  0.50270264  0.97807965  0.50399564     1.35200
C651        C  0.58048343  0.04899879  0.51903409     0.77000
C652        C  0.42347531  0.96748403  0.98251499     0.77000
C653        C  0.47878068  0.00274473  0.55805210     0.76900
C654        C  0.52362098  0.01189774  0.94386444     0.76900
O655        O  0.22057413  0.39434005  0.68396530    -0.72200
O656        O  0.10087387  0.33026546  0.66565653    -0.72500
O657        O  0.14884395  0.36067443  0.71872277    -0.72300
O658        O  0.17292249  0.36232187  0.63155335    -0.72300
O659        O  0.17706668  0.30401962  0.63827355    -0.72300
O660        O  0.14861433  0.29983560  0.72331510    -0.72300
O661        O  0.10272681  0.27044388  0.66969117    -0.72300
O662        O  0.22269137  0.33503284  0.69103298    -0.72400
V663        V  0.16072208  0.36072937  0.67512792     1.35200
V664        V  0.16263826  0.30347700  0.68055884     1.35200
C665        C  0.24186972  0.37586004  0.69129758     0.77000
C666        C  0.08199673  0.28989840  0.66276008     0.77000
C667        C  0.14663212  0.33051306  0.73595744     0.76900
C668        C  0.17824997  0.33260054  0.62017597     0.76900
O669        O  0.89153768  0.22473742  0.60348141    -0.72200
O670        O  0.77393770  0.17075665  0.57717823    -0.72500
O671        O  0.81560010  0.18713329  0.63301968    -0.72300
O672        O  0.85035892  0.20813331  0.54748161    -0.72300
O673        O  0.85268963  0.14895166  0.54678694    -0.72300
O674        O  0.80989023  0.12427127  0.63025760    -0.72300
O675        O  0.77379492  0.11014391  0.57267897    -0.72300
O676        O  0.88876785  0.16257195  0.60468334    -0.72400
V677        V  0.83279920  0.19655771  0.59023218     1.35200
V678        V  0.83132059  0.13764253  0.58860128     1.35200
C679        C  0.90957288  0.20259597  0.60978447     0.77000
C680        C  0.75428129  0.13151771  0.56948601     0.77000
C681        C  0.80727615  0.15221075  0.64661054     0.76900
C682        C  0.85749778  0.18207601  0.53220185     0.76900
O683        O  0.48551683  0.46554787  0.78869115    -0.72200
O684        O  0.51643902  0.49236334  0.70333824    -0.72500
O685        O  0.56085729  0.50857332  0.75799321    -0.72300
O686        O  0.44197996  0.44975605  0.73448401    -0.72300
O687        O  0.43982982  0.50916650  0.73871417    -0.72300
O688        O  0.55840786  0.56780184  0.76316266    -0.72300
O689        O  0.51492321  0.55210087  0.70824146    -0.72300
O690        O  0.48294513  0.52431039  0.79359539    -0.72400
V691        V  0.50131979  0.48030358  0.74621637     1.35200
V692        V  0.49913916  0.53725982  0.75085519     1.35200
C693        C  0.47881066  0.49012897  0.80595792     0.77000
C694        C  0.51900318  0.52583329  0.69090578     0.77000
C695        C  0.57961033  0.54796642  0.76534914     0.76900
C696        C  0.42081041  0.46958205  0.73198714     0.76900
O697        O  0.15918933  0.26576878  0.91956566    -0.72200
O698        O  0.10512617  0.33196615  0.93863645    -0.72500
O699        O  0.12439356  0.30433695  0.88565075    -0.72300
O700        O  0.14057364  0.29438082  0.97271381    -0.72300
O701        O  0.20537843  0.34838145  0.96912377    -0.72300
O702        O  0.18394939  0.36607352  0.88509079    -0.72300
O703        O  0.16817067  0.38934124  0.94154725    -0.72300
O704        O  0.22040815  0.32477717  0.91331026    -0.72400
V705        V  0.13340357  0.30010699  0.92915516     1.35200
V706        V  0.19328772  0.35612790  0.92728115     1.35200
C707        C  0.19853305  0.28416380  0.91135797     0.77000
C708        C  0.12750049  0.37153851  0.94498733     0.77000
C709        C  0.15220541  0.33677668  0.87049303     0.76900
C710        C  0.17596199  0.31994814  0.98594601     0.76900
O711        O  0.26291516  0.16232331  0.84062678    -0.72200
O712        O  0.32314064  0.10338498  0.81638569    -0.72500
O713        O  0.29139225  0.11565239  0.87060910    -0.72300
O714        O  0.29398186  0.14952749  0.78557910    -0.72300
O715        O  0.35568296  0.20737295  0.79352830    -0.72300
O716        O  0.35268611  0.17388308  0.87888121    -0.72300
O717        O  0.38409504  0.16158883  0.82458815    -0.72300
O718        O  0.32434199  0.22040424  0.84783364    -0.72400
V719        V  0.29399335  0.13388404  0.82833756     1.35200
V720        V  0.35295196  0.18968273  0.83606443     1.35200
C721        C  0.28355023  0.20081515  0.85021843     0.77000
C722        C  0.36416404  0.12299444  0.81553477     0.77000
C723        C  0.32065723  0.13988489  0.88948892     0.76900
C724        C  0.32636719  0.18289354  0.77468505     0.76900
O725        O  0.99964340  0.44491663  0.98800935    -0.72200
O726        O  0.94065212  0.50552985  0.50726609    -0.72500
O727        O  0.96929950  0.48801196  0.95468616    -0.72300
O728        O  0.97053389  0.46168308  0.54039542    -0.72300
O729        O  0.03079246  0.52170514  0.54650659    -0.72300
O730        O  0.03249052  0.54530562  0.95928567    -0.72300
O731        O  0.00241843  0.56465435  0.51115545    -0.72300
O732        O  0.06126314  0.50296391  0.99525937    -0.72400
V733        V  0.97156405  0.47592572  0.49763067     1.35200
V734        V  0.03071943  0.53251401  0.50286326     1.35200
C735        C  0.04067610  0.46366945  0.98794480     0.77000
C736        C  0.96163979  0.54536923  0.51339759     0.77000
C737        C  0.00177887  0.51917381  0.94201127     0.76900
C738        C  0.99999498  0.48773784  0.55827084     0.76900
O739        O  0.60942554  0.84068392  0.67400798    -0.72200
O740        O  0.66701650  0.77777987  0.65546455    -0.72500
O741        O  0.64049245  0.79918523  0.70827212    -0.72300
O742        O  0.63687275  0.81997247  0.62130159    -0.72300
O743        O  0.69752982  0.88013696  0.62556405    -0.72300
O744        O  0.70391495  0.85656149  0.71107384    -0.72300
O745        O  0.72908366  0.83678300  0.65702130    -0.72300
O746        O  0.67139716  0.89904996  0.67941564    -0.72400
V747        V  0.63963936  0.81052837  0.66483154     1.35200
V748        V  0.69930399  0.86697821  0.66821724     1.35200
C749        C  0.63043183  0.88002221  0.68131685     0.77000
C750        C  0.70755928  0.79677273  0.65151786     0.77000
C751        C  0.67233813  0.82542658  0.72456233     0.76900
C752        C  0.66740569  0.85312842  0.60856275     0.76900
O753        O  0.77415490  0.66990634  0.59493222    -0.72200
O754        O  0.83243047  0.61252834  0.56402836    -0.72500
O755        O  0.81516986  0.63153821  0.62138956    -0.72300
O756        O  0.79196741  0.65111502  0.53761096    -0.72300
O757        O  0.85371231  0.70950761  0.53579488    -0.72300
O758        O  0.87307877  0.69366831  0.62160181    -0.72300
O759        O  0.89353976  0.67258770  0.56594481    -0.72300
O760        O  0.83390824  0.73111403  0.59163456    -0.72400
V761        V  0.80455876  0.64244610  0.57949513     1.35200
V762        V  0.86245800  0.70062453  0.57871249     1.35200
C763        C  0.79420803  0.71024949  0.59882655     0.77000
C764        C  0.87292325  0.63284682  0.55971205     0.77000
C765        C  0.84719532  0.65984624  0.63647456     0.76900
C766        C  0.81960210  0.68275204  0.52169708     0.76900
O767        O  0.44238625  0.00381982  0.76553426    -0.72200
O768        O  0.50386612  0.94679817  0.74101278    -0.72500
O769        O  0.48867367  0.97460173  0.79612127    -0.72300
O770        O  0.45772600  0.97655864  0.71112959    -0.72300
O771        O  0.51648605  0.03784768  0.70425554    -0.72300
O772        O  0.54662874  0.03605744  0.78998457    -0.72300
O773        O  0.56239551  0.00835461  0.73521638    -0.72300
O774        O  0.50046305  0.06569651  0.75863887    -0.72400
V775        V  0.47438304  0.97664541  0.75339794     1.35200
V776        V  0.53038753  0.03587482  0.74719896     1.35200
C777        C  0.46098295  0.04443377  0.76650097     0.77000
C778        C  0.54321934  0.96775650  0.73282441     0.77000
C779        C  0.52236019  0.00525489  0.80807962     0.76900
C780        C  0.48259349  0.00670592  0.69290989     0.76900
O781        O  0.38275070  0.22254786  0.57018357    -0.72200
O782        O  0.32556085  0.10417415  0.59330596    -0.72500
O783        O  0.34787933  0.14881777  0.53864983    -0.72300
O784        O  0.35980612  0.17812594  0.62493972    -0.72300
O785        O  0.30059663  0.18089021  0.62275688    -0.72300
O786        O  0.28433972  0.14274004  0.53870494    -0.72300
O787        O  0.26431589  0.10396247  0.59516495    -0.72300
O788        O  0.32056319  0.22008229  0.56595417    -0.72400
V789        V  0.35288711  0.16338724  0.58178894     1.35200
V790        V  0.29363804  0.16201053  0.58066039     1.35200
C791        C  0.36131695  0.24102700  0.56291971     0.77000
C792        C  0.28540184  0.08425167  0.59907048     0.77000
C793        C  0.31386283  0.14077457  0.52370631     0.76900
C794        C  0.33217396  0.18442789  0.63891708     0.76900
O795        O  0.49194142  0.43546092  0.50880660    -0.72200
O796        O  0.55853109  0.55647821  0.98508755    -0.72500
O797        O  0.53598132  0.51068827  0.53899261    -0.72300
O798        O  0.51645939  0.48354290  0.95277470    -0.72300
O799        O  0.45558548  0.48306614  0.95897847    -0.72300
O800        O  0.47665203  0.51294868  0.54323415    -0.72300
O801        O  0.49821069  0.55725156  0.98917388    -0.72300
O802        O  0.43279927  0.43880563  0.51246756    -0.72400
V803        V  0.52140929  0.49460149  0.49636288     1.35200
V804        V  0.46469435  0.49788472  0.50053869     1.35200
C805        C  0.45204401  0.41713674  0.51556003     0.77000
C806        C  0.53804130  0.57694275  0.98217347     0.77000
C807        C  0.51082052  0.51733195  0.55593754     0.76900
C808        C  0.48239366  0.48081250  0.94091122     0.76900
O809        O  0.14839723  0.84304042  0.70592744    -0.72200
O810        O  0.12490998  0.81408342  0.62067352    -0.72500
O811        O  0.11038021  0.76928634  0.67461163    -0.72300
O812        O  0.16423612  0.88809942  0.65184813    -0.72300
O813        O  0.22614471  0.88978815  0.64875693    -0.72300
O814        O  0.17178868  0.77063496  0.66889520    -0.72300
O815        O  0.18744191  0.81762652  0.61543399    -0.72300
O816        O  0.20941749  0.84288764  0.70217909    -0.72400
V817        V  0.13822075  0.82869383  0.66316627     1.35200
V818        V  0.19754877  0.83023489  0.65888004     1.35200
C819        C  0.18158688  0.84563862  0.71889679     0.77000
C820        C  0.15265564  0.81264483  0.60323260     0.77000
C821        C  0.13226719  0.75003108  0.67644946     0.76900
C822        C  0.20436300  0.90887843  0.64576528     0.76900
O823        O  0.06561613  0.55710960  0.73648663    -0.72200
O824        O  0.00340340  0.44088366  0.76568824    -0.72500
O825        O  0.02628433  0.47998014  0.70954695    -0.72300
O826        O  0.04307377  0.51780418  0.79341801    -0.72300
O827        O  0.98057419  0.51527647  0.79267077    -0.72300
O828        O  0.97017063  0.48850893  0.70617376    -0.72300
O829        O  0.94310631  0.44198562  0.76018227    -0.72300
O830        O  0.00658348  0.56101238  0.73856896    -0.72400
V831        V  0.03353806  0.49910681  0.75132537     1.35200
V832        V  0.97614889  0.50159203  0.74947086     1.35200
C833        C  0.04638097  0.57859722  0.73184131     0.77000
C834        C  0.96251621  0.42154975  0.76788381     0.77000
C835        C  0.99707660  0.48041971  0.69287545     0.76900
C836        C  0.01343325  0.52028052  0.80783102     0.76900
O837        O  0.79006993  0.15707173  0.80090722    -0.72200
O838        O  0.82275194  0.18501930  0.88623841    -0.72500
O839        O  0.83661212  0.23042695  0.83149053    -0.72300
O840        O  0.77648124  0.11162814  0.85474338    -0.72300
O841        O  0.83492765  0.10807304  0.84746794    -0.72300
O842        O  0.89481864  0.22656293  0.82368307    -0.72300
O843        O  0.88127161  0.18154780  0.87824724    -0.72300
O844        O  0.84819691  0.15288611  0.79278085    -0.72400
V845        V  0.80767262  0.17101848  0.84329603     1.35200
V846        V  0.86368955  0.16735503  0.83567764     1.35200
C847        C  0.81428750  0.15177483  0.78203135     0.77000
C848        C  0.85665036  0.18633147  0.89714597     0.77000
C849        C  0.87546804  0.24830096  0.82205352     0.76900
C850        C  0.79571464  0.08974809  0.85599062     0.76900
O851        O  0.62865462  0.81883329  0.87191808    -0.72200
O852        O  0.63655530  0.84795148  0.95725435    -0.72500
O853        O  0.66394841  0.89259502  0.90358746    -0.72300
O854        O  0.60180564  0.77328351  0.92598464    -0.72300
O855        O  0.66248672  0.77278863  0.92900284    -0.72300
O856        O  0.72445304  0.89176323  0.90840703    -0.72300
O857        O  0.69571367  0.84510863  0.96160078    -0.72300
O858        O  0.69012006  0.81940774  0.87506136    -0.72400
V859        V  0.63381395  0.83298311  0.91476147     1.35200
V860        V  0.69198713  0.83217069  0.91840639     1.35200
C861        C  0.65915092  0.81677415  0.85857855     0.77000
C862        C  0.66706307  0.85115428  0.97428615     0.77000
C863        C  0.70492300  0.91234604  0.90180362     0.76900
C864        C  0.62181128  0.75284166  0.93208091     0.76900
C865        C  0.78290575  0.01316626  0.85603402    -0.02300
C866        C  0.77322116  0.04432115  0.86811486     0.07400
C867        C  0.74264705  0.03201832  0.89280075    -0.02400
C868        C  0.72104449  0.98918332  0.90417051    -0.02400
C869        C  0.72939143  0.95796367  0.89106137     0.00300
C870        C  0.76073422  0.97024553  0.86714469    -0.02600
Br871      Br  0.77190353  0.92774698  0.84797831    -0.01200
Br872      Br  0.82598691  0.02786688  0.82379878    -0.01200
Br873      Br  0.68194298  0.97379119  0.93930415    -0.01200
Br874      Br  0.73214935  0.07406655  0.91321646    -0.01200
C875        C  0.88860757  0.32498428  0.81918914    -0.02300
C876        C  0.89714575  0.29269844  0.80791786     0.07400
C877        C  0.92511424  0.30253931  0.78173933    -0.02400
C878        C  0.94580082  0.34434764  0.76839117    -0.02400
C879        C  0.93836415  0.37672776  0.78047532     0.07500
C880        C  0.90914476  0.36663775  0.80561862    -0.02600
Br881      Br  0.89873572  0.41059488  0.82290593    -0.01200
Br882      Br  0.84958633  0.31349051  0.85379566    -0.01200
Br883      Br  0.98243438  0.35665231  0.73206001    -0.01200
Br884      Br  0.93276608  0.25829434  0.76181654    -0.01200
C885        C  0.04972302  0.63272125  0.69206574    -0.02300
C886        C  0.06915194  0.62233543  0.71732360     0.07400
C887        C  0.11096029  0.65327757  0.72750934    -0.02400
C888        C  0.13240944  0.69456060  0.71341411    -0.02400
C889        C  0.11238495  0.70518343  0.68875021     0.07500
C890        C  0.07163608  0.67365443  0.67759109    -0.02600
Br891      Br  0.04737584  0.68574069  0.64079793    -0.01200
Br892      Br  0.99367499  0.59067620  0.67599936    -0.01200
Br893      Br  0.18826335  0.73707682  0.72947241    -0.01200
Br894      Br  0.13809430  0.64030243  0.76214659    -0.01200
C895        C  0.59343742  0.63592682  0.94722726    -0.02300
C896        C  0.55971749  0.62215141  0.96963127     0.07400
C897        C  0.54592094  0.65145820  0.97891035    -0.02400
C898        C  0.56463946  0.69320278  0.96557552    -0.02400
C899        C  0.59896321  0.70725388  0.94375593     0.07500
C900        C  0.61349331  0.67831564  0.93504264    -0.02600
Br901      Br  0.66050800  0.69556764  0.90560718    -0.01200
Br902      Br  0.61165515  0.59672862  0.93126437    -0.01200
Br903      Br  0.54416083  0.73151992  0.97915281    -0.01200
Br904      Br  0.50335088  0.63633816  0.01165947    -0.01200
C905        C  0.24039744  0.02817952  0.63905789    -0.02300
C906        C  0.26388481  0.03925667  0.61070160     0.07400
C907        C  0.26780030  0.00749378  0.59400040    -0.02400
C908        C  0.24885161  0.96503883  0.60573669    -0.02400
C909        C  0.22518155  0.95386513  0.63406761     0.07500
C910        C  0.22104664  0.98558764  0.65066869    -0.02600
Br911      Br  0.19119225  0.97141966  0.69035849    -0.01200
Br912      Br  0.23651233  0.07178761  0.66297935    -0.01200
Br913      Br  0.25413854  0.92200080  0.58202246    -0.01200
Br914      Br  0.29694183  0.02144675  0.55398721    -0.01200
C915        C  0.43582108  0.33970684  0.51438229    -0.02300
C916        C  0.42852153  0.37182567  0.52754032     0.07400
C917        C  0.39873995  0.36037996  0.55266193    -0.02400
C918        C  0.37687084  0.31765919  0.56423870    -0.02400
C919        C  0.38356241  0.28574623  0.55049690     0.07500
C920        C  0.41231111  0.29671691  0.52505661    -0.02600
Br921      Br  0.41718147  0.25211749  0.50316584    -0.01200
Br922      Br  0.47783299  0.35346410  0.48164081    -0.01200
Br923      Br  0.33940396  0.30309578  0.60015547    -0.01200
Br924      Br  0.38988986  0.40341632  0.57328398    -0.01200
C925        C  0.66423742  0.78530373  0.77476321    -0.02300
C926        C  0.67073963  0.82276089  0.75883588     0.07400
C927        C  0.67239599  0.85731662  0.77564267    -0.02400
C928        C  0.66455195  0.85314228  0.80786245    -0.02400
C929        C  0.66099878  0.81700097  0.82422835     0.07500
C930        C  0.66127438  0.78322310  0.80766215    -0.02600
Br931      Br  0.65539286  0.73336867  0.82965033    -0.01200
Br932      Br  0.66058660  0.73759165  0.75158941    -0.01200
Br933      Br  0.65748290  0.89698525  0.82884870    -0.01200
Br934      Br  0.68484467  0.91073525  0.75498584    -0.01200
C935        C  0.63296699  0.85373042  0.55765276    -0.02300
C936        C  0.66940286  0.85889141  0.57438413     0.07400
C937        C  0.70764224  0.86807133  0.55831840    -0.02400
C938        C  0.70887006  0.87043940  0.52549517    -0.02400
C939        C  0.67066292  0.85998298  0.50826911     0.07500
C940        C  0.63339787  0.85447049  0.52470365    -0.02600
Br941      Br  0.57794222  0.84286230  0.00347912    -0.01200
Br942      Br  0.58232652  0.84581273  0.58014888    -0.01200
Br943      Br  0.76431824  0.89061682  0.50512455    -0.01200
Br944      Br  0.75756294  0.87319633  0.58079040    -0.01200
C945        C  0.76596323  0.77620412  0.65356941    -0.02300
C946        C  0.72882169  0.77318794  0.63891910     0.07400
C947        C  0.71290552  0.74885810  0.61116582    -0.02400
C948        C  0.73448357  0.72859460  0.59795120    -0.02400
C949        C  0.77200286  0.73226929  0.61233323     0.07500
C950        C  0.78757649  0.75599266  0.64026850    -0.02600
Br951      Br  0.83750924  0.75926515  0.66122991    -0.01200
Br952      Br  0.78568453  0.80569530  0.69298763    -0.01200
Br953      Br  0.71402031  0.69776545  0.55902448    -0.01200
Br954      Br  0.66261945  0.74461004  0.59001944    -0.01200
C955        C  0.59340397  0.96285646  0.69330987    -0.02300
C956        C  0.56572305  0.94538803  0.71964697     0.07400
C957        C  0.55826012  0.90550314  0.73229073    -0.02400
C958        C  0.57842683  0.88379012  0.71910809    -0.02400
C959        C  0.60755253  0.90224679  0.69374611     0.07500
C960        C  0.61514126  0.94203449  0.68108151    -0.02600
Br961      Br  0.65375865  0.96710963  0.64583952    -0.01200
Br962      Br  0.59867465  0.01310927  0.67167775    -0.01200
Br963      Br  0.56726304  0.82931372  0.73715248    -0.01200
Br964      Br  0.52165679  0.88067491  0.76859006    -0.01200
C965        C  0.01254230  0.48879054  0.85975663    -0.02300
C966        C  0.01454414  0.52330911  0.84213884     0.07400
C967        C  0.01313643  0.55743722  0.85737871    -0.02400
C968        C  0.00927978  0.55668339  0.89028498    -0.02400
C969        C  0.00562855  0.52126814  0.90766589     0.07500
C970        C  0.00635524  0.48693097  0.89214794    -0.02600
Br971      Br  0.99756693  0.43597579  0.91460593    -0.01200
Br972      Br  0.01719043  0.44284574  0.83982531    -0.01200
Br973      Br  0.00562042  0.60217735  0.91130856    -0.01200
Br974      Br  0.01808061  0.60563697  0.83324413    -0.01200
C975        C  0.95854194  0.46616381  0.60860715    -0.02300
C976        C  0.99766320  0.47946882  0.59228005     0.07400
C977        C  0.03511094  0.48696446  0.60877728    -0.02400
C978        C  0.03522749  0.48675792  0.64168437    -0.02400
C979        C  0.99630035  0.47489176  0.65838215     0.07500
C980        C  0.95745066  0.46190836  0.64139650    -0.02600
Br981      Br  0.90197871  0.43714623  0.66238308    -0.01200
Br982      Br  0.90680970  0.45718868  0.58675252    -0.01200
Br983      Br  0.09046005  0.50666519  0.66247627    -0.01200
Br984      Br  0.08609758  0.49619348  0.58611524    -0.01200
C985        C  0.94885723  0.58684832  0.55490270    -0.02300
C986        C  0.93945120  0.56854439  0.52468914     0.07400
C987        C  0.90852756  0.57197609  0.50583798    -0.02400
C988        C  0.88678139  0.59313975  0.51723036    -0.02400
C989        C  0.89566761  0.61069979  0.54761923     0.07500
C990        C  0.92667271  0.60742790  0.56639981    -0.02600
Br991      Br  0.93678163  0.62905301  0.60863716    -0.01200
Br992      Br  0.99110349  0.58264514  0.58122523    -0.01200
Br993      Br  0.84608545  0.59959573  0.49071253    -0.01200
Br994      Br  0.89824050  0.55088000  0.96425962    -0.01200
C995        C  0.28114538  0.12964493  0.93987194    -0.02300
C996        C  0.31604548  0.13078462  0.92356751     0.07400
C997        C  0.34786004  0.12641322  0.94024335    -0.02400
C998        C  0.34873801  0.12738553  0.97326424    -0.02400
C999        C  0.31629259  0.13138262  0.99005568     0.07500
C1000       C  0.28048349  0.12867909  0.97286313    -0.02600
Br1001     Br  0.22892326  0.12225636  0.99321459    -0.01200
Br1002     Br  0.23477748  0.13145085  0.91708338    -0.01200
Br1003     Br  0.37718711  0.10705932  0.49633698    -0.01200
Br1004     Br  0.38868438  0.11643001  0.91744320    -0.01200
C1005       C  0.30076886  0.19471448  0.68971861    -0.02300
C1006       C  0.33480679  0.19259339  0.67366499     0.07400
C1007       C  0.36948786  0.19434887  0.69186883    -0.02400
C1008       C  0.36733601  0.19307870  0.72487839    -0.02400
C1009       C  0.33133499  0.19088746  0.74037919     0.07500
C1010       C  0.29877533  0.19286338  0.72275975    -0.02600
Br1011     Br  0.25127769  0.19326098  0.74428668    -0.01200
Br1012     Br  0.25628626  0.20115936  0.66781682    -0.01200
Br1013     Br  0.41270497  0.19081294  0.74878262    -0.01200
Br1014     Br  0.42115279  0.19897410  0.67293396    -0.01200
C1015       C  0.37283628  0.07459291  0.77686389    -0.02300
C1016       C  0.38868846  0.10242781  0.80301302     0.07400
C1017       C  0.43001845  0.11335168  0.81535226    -0.02400
C1018       C  0.45408844  0.09552424  0.80261418    -0.02400
C1019       C  0.43724374  0.06616434  0.77771268     0.07500
C1020       C  0.39684046  0.05623536  0.76458860    -0.02600
Br1021     Br  0.37589561  0.01984077  0.72816499    -0.01200
Br1022     Br  0.32046064  0.06445357  0.75543591    -0.01200
Br1023     Br  0.50993183  0.11069896  0.82026838    -0.01200
Br1024     Br  0.45466982  0.15228731  0.85019404    -0.01200
C1025       C  0.12043556  0.43852263  0.94651290    -0.02300
C1026       C  0.10642898  0.39587234  0.95681028     0.07400
C1027       C  0.07196439  0.37640454  0.97864728    -0.02400
C1028       C  0.05085482  0.39867754  0.98907334    -0.02400
C1029       C  0.06414735  0.44082371  0.97815934     0.07500
C1030       C  0.09922707  0.46070743  0.95691135    -0.02600
Br1031     Br  0.11659867  0.51732923  0.93974935    -0.01200
Br1032     Br  0.16756395  0.46659845  0.91695610    -0.01200
Br1033     Br  0.01015859  0.37417235  0.52132297    -0.01200
Br1034     Br  0.05500515  0.32013610  0.99627725    -0.01200
C1035       C  0.25926477  0.26734361  0.90800544    -0.02300
C1036       C  0.21815710  0.25949615  0.89786087     0.07400
C1037       C  0.19758464  0.23086073  0.87279699    -0.02400
C1038       C  0.21919844  0.21265009  0.85665039    -0.02400
C1039       C  0.26108722  0.22150742  0.86610227     0.07500
C1040       C  0.28035290  0.24801966  0.89264848    -0.02600
Br1041     Br  0.33423338  0.25590701  0.91020246    -0.01200
Br1042     Br  0.28568318  0.30269627  0.94440383    -0.01200
Br1043     Br  0.19156594  0.17733636  0.82054125    -0.01200
Br1044     Br  0.14016585  0.21752461  0.85941129    -0.01200
C1045       C  0.47625739  0.44886314  0.85540577    -0.02300
C1046       C  0.46982511  0.48090652  0.84024017     0.07400
C1047       C  0.45975064  0.50739641  0.85893517    -0.02400
C1048       C  0.46331741  0.50676966  0.89177640    -0.02400
C1049       C  0.47537953  0.47857585  0.90652741     0.07500
C1050       C  0.48134176  0.44939313  0.88815757    -0.02600
Br1051     Br  0.49765463  0.41048844  0.90742813    -0.01200
Br1052     Br  0.47529209  0.40171100  0.83265325    -0.01200
Br1053     Br  0.45599508  0.54836121  0.91593227    -0.01200
Br1054     Br  0.43811324  0.54298088  0.84055715    -0.01200
C1055       C  0.55312466  0.52504433  0.63991639    -0.02300
C1056       C  0.52297526  0.53190779  0.65652426     0.07400
C1057       C  0.49349371  0.54041686  0.63995394    -0.02400
C1058       C  0.49318345  0.54061751  0.60702223    -0.02400
C1059       C  0.51941894  0.52794141  0.59009792     0.07500
C1060       C  0.55120817  0.52244336  0.60692131    -0.02600
Br1061     Br  0.59263668  0.51086276  0.58615404    -0.01200
Br1062     Br  0.59739058  0.51939558  0.66271481    -0.01200
Br1063     Br  0.45737135  0.56038569  0.58622071    -0.01200
Br1064     Br  0.44975561  0.54722137  0.66203833    -0.01200
C1065       C  0.87281266  0.16015360  0.94784564    -0.02300
C1066       C  0.86559838  0.19068248  0.93152099     0.07400
C1067       C  0.86458147  0.22377286  0.94850731    -0.02400
C1068       C  0.86778036  0.22486770  0.98152498    -0.02400
C1069       C  0.86875297  0.19072233  0.99838257     0.07500
C1070       C  0.87483580  0.16032672  0.98095144    -0.02600
Br1071     Br  0.88793433  0.11939790  0.00138442    -0.01200
Br1072     Br  0.87652088  0.11548853  0.92510605    -0.01200
Br1073     Br  0.87914627  0.27554823  0.50210219    -0.01200
Br1074     Br  0.85900313  0.26816692  0.92642207    -0.01200
C1075       C  0.79340270  0.17669592  0.69886810    -0.02300
C1076       C  0.79865595  0.14594823  0.68130426     0.07400
C1077       C  0.80073910  0.11222190  0.69799510    -0.02400
C1078       C  0.80397577  0.11326106  0.73098266    -0.02400
C1079       C  0.80464759  0.14719602  0.74787886     0.07500
C1080       C  0.79762380  0.17796571  0.73178806    -0.02600
Br1081     Br  0.79704876  0.22433212  0.75446160    -0.01200
Br1082     Br  0.77837619  0.21651372  0.67886918    -0.01200
Br1083     Br  0.80637528  0.06728201  0.75327009    -0.01200
Br1084     Br  0.79908699  0.06358472  0.67698491    -0.01200
C1085       C  0.11307260  0.33316026  0.78700581    -0.02300
C1086       C  0.14704337  0.33285638  0.77034439     0.07400
C1087       C  0.18237333  0.33419354  0.78671164    -0.02400
C1088       C  0.18497691  0.33832965  0.81928097    -0.02400
C1089       C  0.15078554  0.33801538  0.83611433     0.07500
C1090       C  0.11464908  0.33515633  0.82000871    -0.02600
Br1091     Br  0.06809395  0.33506326  0.84311320    -0.01200
Br1092     Br  0.06305700  0.32718413  0.76479051    -0.01200
Br1093     Br  0.23535873  0.34279588  0.84049956    -0.01200
Br1094     Br  0.22727626  0.32892603  0.76513252    -0.01200
C1095       C  0.21906560  0.36183022  0.53695768    -0.02300
C1096       C  0.18804499  0.32455924  0.52062610     0.07400
C1097       C  0.15839323  0.28790956  0.53821182    -0.02400
C1098       C  0.15588127  0.29055735  0.57084532    -0.02400
C1099       C  0.18339624  0.32941226  0.58634712     0.07500
C1100       C  0.21593567  0.36434826  0.56962832    -0.02600
Br1101     Br  0.25690325  0.41545448  0.59184455    -0.01200
Br1102     Br  0.25963755  0.40520449  0.01507157    -0.01200
Br1103     Br  0.11232648  0.24118270  0.59387915    -0.01200
Br1104     Br  0.12158422  0.23284274  0.51862165    -0.01200
C1105       C  0.98789020  0.25749348  0.60655968    -0.02300
C1106       C  0.95385308  0.22333171  0.62299779     0.07400
C1107       C  0.96187872  0.21076167  0.65267698    -0.02400
C1108       C  0.00372805  0.23266583  0.66593704    -0.02400
C1109       C  0.03777935  0.26684816  0.64943517     0.07500
C1110       C  0.02965605  0.27930266  0.61969259    -0.02600
Br1111     Br  0.07569152  0.32563195  0.59615569    -0.01200
Br1112     Br  0.97748837  0.27314032  0.56527948    -0.01200
Br1113     Br  0.01373758  0.21818756  0.70769828    -0.01200
Br1114     Br  0.91522296  0.16509845  0.67602184    -0.01200
C1115       C  0.36312057  0.41858429  0.69518399    -0.02300
C1116       C  0.37520070  0.44705786  0.72084149     0.07400
C1117       C  0.34354816  0.45410764  0.73537148    -0.02400
C1118       C  0.30016301  0.43178561  0.72508567    -0.02400
C1119       C  0.28786783  0.40153128  0.70068966     0.07500
C1120       C  0.31958614  0.39580224  0.68536670    -0.02600
Br1121     Br  0.30357947  0.35898814  0.64932568    -0.01200
Br1122     Br  0.40628537  0.41259714  0.67177815    -0.01200
Br1123     Br  0.25742028  0.44187301  0.74535660    -0.01200
Br1124     Br  0.35852023  0.49263166  0.77048115    -0.01200
C1125       C  0.55722221  0.04652909  0.89187086    -0.02300
C1126       C  0.52985681  0.00932152  0.90953746     0.07400
C1127       C  0.50676569  0.96943439  0.89393384    -0.02400
C1128       C  0.50777592  0.96759804  0.86097477    -0.02400
C1129       C  0.53091330  0.00582358  0.84279211     0.07500
C1130       C  0.55859045  0.04474603  0.85880709    -0.02600
Br1131     Br  0.60017114  0.09603733  0.83664146    -0.01200
Br1132     Br  0.59397930  0.10004740  0.91313304    -0.01200
Br1133     Br  0.47868511  0.91144975  0.84154081    -0.01200
Br1134     Br  0.47067061  0.91669112  0.91704838    -0.01200
C1135       C  0.45963977  0.96370621  0.61012983    -0.02300
C1136       C  0.46908904  0.00121914  0.59238246     0.07400
C1137       C  0.47433122  0.03808860  0.60866563    -0.02400
C1138       C  0.47674970  0.03922038  0.64174309    -0.02400
C1139       C  0.47384326  0.00385558  0.65878491     0.07500
C1140       C  0.46411840  0.96570527  0.64288019    -0.02600
Br1141     Br  0.46129926  0.91689470  0.66526026    -0.01200
Br1142     Br  0.43816971  0.90807383  0.59062443    -0.01200
Br1143     Br  0.48354967  0.08910136  0.66394877    -0.01200
Br1144     Br  0.47764222  0.08739343  0.58683112    -0.01200
C1145       C  0.70110728  0.09113136  0.52686788    -0.02300
C1146       C  0.70990846  0.11132121  0.55637576     0.07400
C1147       C  0.67625814  0.11234617  0.57308703    -0.02400
C1148       C  0.63405369  0.09302856  0.56046659    -0.02400
C1149       C  0.62531120  0.07268797  0.53108873     0.07500
C1150       C  0.65894346  0.07205730  0.51428613    -0.02600
Br1151     Br  0.64660304  0.04898800  0.97322035    -0.01200
Br1152     Br  0.74690554  0.09051768  0.50308956    -0.01200
Br1153     Br  0.58775741  0.09229245  0.58430239    -0.01200
Br1154     Br  0.68719654  0.13747410  0.61428546    -0.01200
C1155       C  0.22266017  0.88127152  0.80139754    -0.02300
C1156       C  0.19266502  0.84491616  0.81872778     0.07400
C1157       C  0.15965680  0.80909613  0.80285849    -0.02400
C1158       C  0.15420493  0.81141174  0.77057600    -0.02400
C1159       C  0.18505793  0.84696874  0.75315404     0.07500
C1160       C  0.21945812  0.88182632  0.76849753    -0.02600
Br1161     Br  0.26011518  0.93133481  0.74452861    -0.01200
Br1162     Br  0.26958328  0.92902730  0.82216036    -0.01200
Br1163     Br  0.10300741  0.76607550  0.75084885    -0.01200
Br1164     Br  0.12112409  0.75603688  0.82461667    -0.01200
C1165       C  0.12780563  0.83122818  0.52003843    -0.02300
C1166       C  0.13979805  0.80490513  0.50308085     0.07400
C1167       C  0.14808228  0.77501483  0.51995912    -0.02400
C1168       C  0.15117047  0.77684118  0.55288434    -0.02400
C1169       C  0.14527249  0.80757649  0.56915797     0.07500
C1170       C  0.13228026  0.83387473  0.55276158    -0.02600
Br1171     Br  0.12430281  0.87678492  0.57444391    -0.01200
Br1172     Br  0.10215093  0.86171269  0.49925145    -0.01200
Br1173     Br  0.16288072  0.73672051  0.57596867    -0.01200
Br1174     Br  0.15175523  0.73159251  0.99820066    -0.01200
C1175       C  0.32594729  0.93740038  0.92996393    -0.02300
C1176       C  0.29485674  0.89739842  0.94291499     0.07400
C1177       C  0.30550748  0.88184231  0.97019808    -0.02400
C1178       C  0.34722152  0.90499605  0.98347499    -0.02400
C1179       C  0.37907533  0.94351320  0.96927232     0.07500
C1180       C  0.36832616  0.95926911  0.94213761    -0.02600
Br1181     Br  0.41220045  0.00920853  0.91987578    -0.01200
Br1182     Br  0.31095354  0.96378922  0.89616420    -0.01200
Br1183     Br  0.35915199  0.88386312  0.52426579    -0.01200
Br1184     Br  0.26168315  0.83132449  0.99166855    -0.01200
C1185       C  0.78143550  0.65653392  0.93755986    -0.02300
C1186       C  0.81766921  0.68608013  0.92019271     0.07400
C1187       C  0.85177812  0.72131263  0.93565885    -0.02400
C1188       C  0.85165880  0.72448271  0.96862210    -0.02400
C1189       C  0.81786170  0.69129884  0.98673467     0.07500
C1190       C  0.78096691  0.65927708  0.97049420    -0.02600
Br1191     Br  0.72655303  0.61009695  0.49206446    -0.01200
Br1192     Br  0.73163124  0.61287446  0.91586024    -0.01200
Br1193     Br  0.89779477  0.77568660  0.98770170    -0.01200
Br1194     Br  0.90042308  0.76423446  0.91183934    -0.01200
C1195       C  0.89070864  0.68513217  0.68711011    -0.02300
C1196       C  0.85248398  0.65498563  0.67110778     0.07400
C1197       C  0.81797157  0.62261659  0.68929539    -0.02400
C1198       C  0.81975526  0.62408142  0.72233564    -0.02400
C1199       C  0.85521890  0.65795006  0.73776136     0.07500
C1200       C  0.89137513  0.68718706  0.72014297    -0.02600
Br1201     Br  0.94253835  0.72933775  0.74159720    -0.01200
Br1202     Br  0.94363631  0.72280397  0.66481159    -0.01200
Br1203     Br  0.77203664  0.58054800  0.74655601    -0.01200
Br1204     Br  0.76684184  0.57579232  0.67040725    -0.01200
C1205       C  0.67871200  0.57350115  0.81501486    -0.02300
C1206       C  0.71092140  0.61259194  0.80127808     0.07400
C1207       C  0.69967425  0.62917176  0.77459749    -0.02400
C1208       C  0.65682475  0.60807195  0.76289966    -0.02400
C1209       C  0.62482154  0.56995211  0.77727199     0.07500
C1210       C  0.63592163  0.55284444  0.80337189    -0.02600
Br1211     Br  0.59172952  0.50196705  0.82445283    -0.01200
Br1212     Br  0.69191147  0.54698238  0.84985601    -0.01200
Br1213     Br  0.64235110  0.62995211  0.72585460    -0.01200
Br1214     Br  0.74331811  0.67824946  0.75154531    -0.01200
C1215       C  0.99481355  0.76837646  0.84315770    -0.02300
C1216       C  0.96210324  0.72959141  0.85679373     0.07400
C1217       C  0.97285218  0.71202735  0.88316601    -0.02400
C1218       C  0.01566345  0.73216037  0.89486997    -0.02400
C1219       C  0.04832881  0.76960476  0.88031843     0.07500
C1220       C  0.03775007  0.78757434  0.85439156    -0.02600
Br1221     Br  0.08251504  0.83802559  0.83323397    -0.01200
Br1222     Br  0.98189085  0.79656946  0.80925964    -0.01200
Br1223     Br  0.02902444  0.71070473  0.93262953    -0.01200
Br1224     Br  0.92863469  0.66287129  0.90581402    -0.01200
loop_ 
_geom_bond_atom_site_label_1 
_geom_bond_atom_site_label_2 
_geom_bond_distance 
_geom_bond_site_symmetry_2 
_ccdc_geom_bond_type 
O1            V9   1.909       .  S
O1           C11   1.267       .  A
O2            V9   1.909       .  S
O2           C12   1.267       .  A
O3            V9   1.906       .  S
O3           C13   1.265       .  A
O4            V9   1.902       .  S
O4           C14   1.264       .  A
O5           V10   1.912       .  S
O5           C14   1.267       .  A
O6           V10   1.908       .  S
O6           C13   1.266       .  A
O7           V10   1.902       .  S
O7           C12   1.265       .  A
O8           V10   1.900       .  S
O8           C11   1.264       .  A
V9           V10   2.084       .  T
C11         C594   1.498       .  S
C12         C604   1.499       .  S
C13         C587   1.487       .  S
C14         C574   1.487       .  S
O15          V23   1.896       .  S
O15          C25   1.262       .  A
O16          V23   1.895       .  S
O16          C26   1.262       .  A
O17          V23   1.912       .  S
O17          C27   1.267       .  A
O18          V23   1.905       .  S
O18          C28   1.268       .  A
O19          V24   1.885       .  S
O19          C28   1.258       .  A
O20          V24   1.890       .  S
O20          C27   1.262       .  A
O21          V24   1.916       .  S
O21          C26   1.269       .  A
O22          V24   1.914       .  S
O22          C25   1.269       .  A
V23          V24   2.083       .  T
C25         C607   1.487       .  S
C26         C564   1.490       .  S
C27         C544   1.479       .  S
C28        C1166   1.494       .  S
O29          V37   1.906   1_554  S
O29          C39   1.265       .  A
O30         V649   1.898       .  S
O30          C40   1.264   1_545  A
O31          V37   1.911   1_554  S
O31          C41   1.266       .  A
O32         V649   1.912       .  S
O32          C42   1.268       .  A
O33         V650   1.895       .  S
O33          C42   1.263   1_565  A
O34          V38   1.894       .  S
O34          C41   1.264   1_565  A
O35         V650   1.903       .  S
O35          C40   1.264       .  A
O36          V38   1.897   1_545  S
O36          C39   1.263       .  A
V37         O642   1.898       .  S
V37         O644   1.913       .  S
V37          V38   2.083   1_546  T
V38         O645   1.896   1_554  S
V38         O647   1.903   1_554  S
C39         C537   1.477       .  S
C40         C567   1.483       .  S
C41         C524   1.503       .  S
C42         C514   1.492       .  S
O43          V51   1.888       .  S
O43          C53   1.260       .  A
O44          V51   1.889       .  S
O44          C54   1.260       .  A
O45          V51   1.908       .  S
O45          C55   1.267       .  A
O46          V51   1.902       .  S
O46          C56   1.267       .  A
O47          V52   1.878       .  S
O47          C56   1.257       .  A
O48          V52   1.883       .  S
O48          C55   1.259       .  A
O49          V52   1.914       .  S
O49          C54   1.269       .  A
O50          V52   1.910       .  S
O50          C53   1.269       .  A
V51          V52   2.088       .  T
C53         C507   1.480       .  S
C54         C497   1.480       .  S
C55         C474   1.469       .  S
C56         C487   1.467       .  S
O57          V65   1.897       .  S
O57          C67   1.263       .  A
O58          V65   1.900       .  S
O58          C68   1.264       .  A
O59          V65   1.901       .  S
O59          C69   1.265       .  A
O60          V65   1.905       .  S
O60          C70   1.265       .  A
O61          V66   1.906       .  S
O61          C70   1.266       .  A
O62          V66   1.901       .  S
O62          C69   1.264       .  A
O63          V66   1.902       .  S
O63          C68   1.265       .  A
O64          V66   1.907       .  S
O64          C67   1.265       .  A
V65          V66   2.080       .  T
C67         C494   1.478       .  S
C68         C534   1.479       .  S
C69         C464   1.505       .  S
C70        C1069   1.512   1_554  S
O71          V79   1.895       .  S
O71          C81   1.263       .  A
O72          V79   1.895       .  S
O72          C82   1.264       .  A
O73          V79   1.903       .  S
O73          C83   1.265       .  A
O74          V79   1.898       .  S
O74          C84   1.264       .  A
O75          V80   1.900       .  S
O75          C84   1.264       .  A
O76          V80   1.899       .  S
O76          C83   1.264       .  A
O77          V80   1.896       .  S
O77          C82   1.263       .  A
O78          V80   1.897       .  S
O78          C81   1.264       .  A
V79          V80   2.082       .  T
C81         C434   1.499       .  S
C82         C444   1.481       .  S
C83         C597   1.481       .  S
C84         C504   1.484       .  S
O85          V93   1.905       .  S
O85          C95   1.265       .  A
O86          V93   1.899       .  S
O86          C96   1.264       .  A
O87          V93   1.897       .  S
O87          C97   1.263       .  A
O88          V93   1.895       .  S
O88          C98   1.264       .  A
O89          V94   1.888       .  S
O89          C98   1.260       .  A
O90          V94   1.892       .  S
O90          C97   1.263       .  A
O91          V94   1.907       .  S
O91          C96   1.266       .  A
O92          V94   1.904       .  S
O92          C95   1.266       .  A
V93          V94   2.081       .  T
C95         C424   1.489       .  S
C96         C414   1.490       .  S
C97         C477   1.469       .  S
C98        C1096   1.492       .  S
O99         V107   1.907       .  S
O99         C109   1.268       .  A
O100        V107   1.909       .  S
O100        C110   1.267       .  A
O101        V107   1.899       .  S
O101        C111   1.262       .  A
O102        V107   1.901       .  S
O102        C112   1.264       .  A
O103        V108   1.906       .  S
O103        C112   1.265       .  A
O104        V108   1.907       .  S
O104        C111   1.266       .  A
O105        V108   1.891       .  S
O105        C110   1.262       .  A
O106        V108   1.899       .  S
O106        C109   1.263       .  A
V107        V108   2.085       .  T
C109        C427   1.498       .  S
C110        C404   1.490       .  S
C111        C384   1.478       .  S
C112        C397   1.481       .  S
O113        V733   1.908   1_455  S
O113        C123   1.268       .  A
O114        V121   1.909   1_554  S
O114        C124   1.267       .  A
O115        V733   1.886       .  S
O115        C125   1.260   1_655  A
O116        V121   1.884   1_554  S
O116        C126   1.259       .  A
O117        V122   1.898       .  S
O117        C126   1.266   1_455  A
O118        V734   1.906       .  S
O118        C125   1.266       .  A
O119        V122   1.896       .  S
O119        C124   1.262   1_455  A
O120        V734   1.897       .  S
O120        C123   1.262       .  A
V121        O725   1.906       .  S
V121        O727   1.886       .  S
V121        V122   2.087   1_656  T
V122        O730   1.907   1_554  S
V122        O732   1.897   1_554  S
C123        C417   1.487       .  S
C124        C374   1.479       .  S
C125        C357   1.472       .  S
C126        C364   1.471       .  S
O127        V135   1.901       .  S
O127        C137   1.264       .  A
O128        V135   1.899       .  S
O128        C138   1.264       .  A
O129        V135   1.897       .  S
O129        C139   1.264       .  A
O130        V135   1.895       .  S
O130        C140   1.264       .  A
O131        V136   1.881       .  S
O131        C140   1.259       .  A
O132        V136   1.884       .  S
O132        C139   1.260       .  A
O133        V136   1.907       .  S
O133        C138   1.267       .  A
O134        V136   1.907       .  S
O134        C137   1.267       .  A
V135        V136   2.088       .  T
C137        C347   1.486       .  S
C138        C334   1.484       .  S
C139        C314   1.463       .  S
C140        C324   1.467       .  S
O141        V149   1.901       .  S
O141        C151   1.264       .  A
O142        V149   1.899       .  S
O142        C152   1.263       .  A
O143        V149   1.902       .  S
O143        C153   1.265       .  A
O144        V149   1.900       .  S
O144        C154   1.264       .  A
O145        V150   1.907       .  S
O145        C154   1.265       .  A
O146        V150   1.906       .  S
O146        C153   1.266       .  A
O147        V150   1.904       .  S
O147        C152   1.265       .  A
O148        V150   1.903       .  S
O148        C151   1.265       .  A
V149        V150   2.080       .  T
C151        C337   1.481       .  S
C152        C377   1.476       .  S
C153        C584   1.510       .  S
C154       C1189   1.510   1_554  S
O155        V163   1.893   1_545  S
O155        C165   1.261       .  A
O156        V163   1.900       .  S
O156        C166   1.264       .  A
O157        V163   1.902       .  S
O157        C167   1.265   1_565  A
O158        V163   1.897       .  S
O158        C168   1.264   1_565  A
O159        V164   1.905       .  S
O159        C168   1.265       .  A
O160        V164   1.907       .  S
O160        C167   1.265       .  A
O161        V164   1.907       .  S
O161        C166   1.266   1_545  A
O162        V164   1.907       .  S
O162        C165   1.267       .  A
V163        V164   2.083   1_565  T
C165        C407   1.477       .  S
C166        C344   1.491       .  S
C167        C517   1.508       .  S
C168        C527   1.486       .  S
O169        V177   1.901       .  S
O169        C179   1.264       .  A
O170        V177   1.902       .  S
O170        C180   1.265       .  A
O171        V177   1.902       .  S
O171        C181   1.263       .  A
O172        V177   1.902       .  S
O172        C182   1.265       .  A
O173        V178   1.898       .  S
O173        C182   1.264       .  A
O174        V178   1.895       .  S
O174        C181   1.264       .  A
O175        V178   1.905       .  S
O175        C180   1.265       .  A
O176        V178   1.907       .  S
O176        C179   1.266       .  A
V177        V178   2.078       .  T
C179        C307   1.485       .  S
C180        C294   1.482       .  S
C181        C999   1.504   1_554  S
C182        C394   1.502       .  S
O183        V191   1.911   1_554  S
O183        C193   1.267       .  A
O184        V803   1.899       .  S
O184        C194   1.264       .  A
O185        V191   1.901   1_554  S
O185        C195   1.264       .  A
O186        V803   1.910       .  S
O186        C196   1.267       .  A
O187        V804   1.890       .  S
O187        C196   1.262       .  A
O188        V192   1.893       .  S
O188        C195   1.264       .  A
O189        V804   1.904       .  S
O189        C194   1.266       .  A
O190        V192   1.901       .  S
O190        C193   1.265       .  A
V191        O796   1.900       .  S
V191        O798   1.908       .  S
V191        V192   2.082   1_556  T
V192        O799   1.892   1_554  S
V192        O801   1.905   1_554  S
C193        C304   1.492       .  S
C194        C284   1.491       .  S
C195        C447   1.494       .  S
C196        C437   1.483       .  S
O197        V205   1.886       .  S
O197        C207   1.260       .  A
O198        V205   1.884       .  S
O198        C208   1.259       .  A
O199        V205   1.908       .  S
O199        C209   1.269       .  A
O200        V205   1.912       .  S
O200        C210   1.268       .  A
O201        V206   1.897       .  S
O201        C210   1.263       .  A
O202        V206   1.901       .  S
O202        C209   1.263       .  A
O203        V206   1.905       .  S
O203        C208   1.267       .  A
O204        V206   1.905       .  S
O204        C207   1.266       .  A
V205        V206   2.087       .  T
C207        C547   1.468       .  S
C208        C557   1.473       .  S
C209        C277   1.491       .  S
C210        C297   1.488       .  S
O211        V219   1.912       .  S
O211        C221   1.268       .  A
O212        V219   1.908       .  S
O212        C222   1.267   1_455  A
O213        V219   1.886       .  S
O213        C223   1.259   1_455  A
O214        V219   1.894       .  S
O214        C224   1.262       .  A
O215        V220   1.897       .  S
O215        C224   1.264   1_655  A
O216        V220   1.895       .  S
O216        C223   1.264       .  A
O217        V220   1.908       .  S
O217        C222   1.266       .  A
O218        V220   1.900   1_455  S
O218        C221   1.264       .  A
V219        V220   2.082   1_455  T
C221        C274   1.494       .  S
C222        C267   1.492       .  S
C223        C367   1.484       .  S
C224        C354   1.468       .  S
O225        V233   1.899       .  S
O225        C235   1.263       .  A
O226        V233   1.908       .  S
O226        C236   1.266       .  A
O227        V233   1.912       .  S
O227        C237   1.268       .  A
O228        V233   1.908       .  S
O228        C238   1.267       .  A
O229        V234   1.904       .  S
O229        C238   1.265       .  A
O230        V234   1.906       .  S
O230        C237   1.266       .  A
O231        V234   1.909       .  S
O231        C236   1.266       .  A
O232        V234   1.910       .  S
O232        C235   1.267       .  A
V233        V234   2.083       .  T
C235        C467   1.485       .  S
C236        C454   1.491       .  S
C237        C264   1.503       .  S
C238        C254   1.502       .  S
O239        V247   1.889       .  S
O239        C249   1.262       .  A
O240        V247   1.887       .  S
O240        C250   1.259       .  A
O241        V247   1.906       .  S
O241        C251   1.266       .  A
O242        V247   1.910       .  S
O242        C252   1.267       .  A
O243        V248   1.901       .  S
O243        C252   1.264       .  A
O244        V248   1.904       .  S
O244        C251   1.264       .  A
O245        V248   1.895       .  S
O245        C250   1.265       .  A
O246        V248   1.903       .  S
O246        C249   1.265       .  A
V247        V248   2.083       .  T
C249        C317   1.471       .  S
C250        C939   1.491       .  S
C251        C257   1.489       .  S
C252        C287   1.494       .  S
C253        C254   1.421       .  A
C253        C258   1.412   1_545  A
C253       Br260   1.931       .  S
C254        C255   1.421       .  A
C255        C256   1.413   1_545  A
C255       Br262   1.932       .  S
C256        C257   1.409       .  A
C256       Br261   1.932       .  S
C257        C258   1.412       .  A
C258       Br259   1.936       .  S
C263        C264   1.418       .  A
C263        C268   1.414       .  A
C263       Br270   1.929       .  S
C264        C265   1.422       .  A
C265        C266   1.414       .  A
C265       Br272   1.935       .  S
C266        C267   1.410       .  A
C266       Br271   1.933       .  S
C267        C268   1.413       .  A
C268       Br269   1.934       .  S
C273        C274   1.419       .  A
C273        C278   1.411       .  A
C273       Br280   1.933   1_455  S
C274        C275   1.413       .  A
C275        C276   1.414       .  A
C275       Br282   1.932       .  S
C276        C277   1.417       .  A
C276       Br281   1.934       .  S
C277        C278   1.407       .  A
C278       Br279   1.931       .  S
C283        C284   1.416       .  A
C283        C288   1.410       .  A
C283       Br290   1.937       .  S
C284        C285   1.414       .  A
C285        C286   1.412       .  A
C285       Br292   1.933       .  S
C286        C287   1.415       .  A
C286       Br291   1.931       .  S
C287        C288   1.414       .  A
C288       Br289   1.926       .  S
C293        C294   1.412       .  A
C293        C298   1.412   1_545  A
C293       Br300   1.931       .  S
C294        C295   1.409       .  A
C295        C296   1.409   1_545  A
C295       Br302   1.934       .  S
C296        C297   1.417       .  A
C296       Br301   1.934       .  S
C297        C298   1.412       .  A
C298       Br299   1.930       .  S
C303        C304   1.414       .  A
C303        C308   1.411       .  A
C303       Br310   1.922   1_554  S
C304        C305   1.417       .  A
C305        C306   1.411       .  A
C305       Br312   1.933       .  S
C306        C307   1.409       .  A
C306       Br311   1.928       .  S
C307        C308   1.411       .  A
C308       Br309   1.934   1_554  S
C313        C314   1.405       .  A
C313        C318   1.407       .  A
C313       Br320   1.928       .  S
C314        C315   1.408       .  A
C315        C316   1.397       .  A
C315       Br322   1.934       .  S
C316        C317   1.412       .  A
C316       Br321   1.933       .  S
C317        C318   1.411       .  A
C318       Br319   1.918       .  S
C323        C324   1.404       .  A
C323        C328   1.406       .  A
C323       Br330   1.936       .  S
C324        C325   1.410       .  A
C325        C326   1.401       .  A
C325       Br332   1.937       .  S
C326        C327   1.417       .  A
C326       Br331   1.938       .  S
C327        C862   1.488   1_554  S
C327        C328   1.425       .  A
C328       Br941   1.936       .  S
Br329       C940   1.936       .  S
C333        C334   1.411       .  A
C333        C338   1.411       .  A
C333       Br340   1.931       .  S
C334        C335   1.416       .  A
C335        C336   1.409       .  A
C335       Br342   1.933       .  S
C336        C337   1.409       .  A
C336       Br341   1.933       .  S
C337        C338   1.413       .  A
C338       Br339   1.932       .  S
C343        C344   1.417       .  A
C343        C348   1.412       .  A
C343       Br350   1.934   1_565  S
C344        C345   1.415       .  A
C345        C346   1.410       .  A
C345       Br352   1.933       .  S
C346        C347   1.414       .  A
C346       Br351   1.935       .  S
C347        C348   1.410       .  A
C348       Br349   1.932       .  S
C353        C354   1.408       .  A
C353        C358   1.398       .  A
C353       Br360   1.933       .  S
C354        C355   1.408       .  A
C355        C356   1.410       .  A
C355       Br362   1.928       .  S
C356        C357   1.409       .  A
C356       Br361   1.922       .  S
C357        C358   1.412       .  A
C358       Br359   1.933   1_455  S
C363        C364   1.411       .  A
C363        C368   1.405       .  A
C363       Br370   1.936       .  S
C364        C365   1.404   1_655  A
C365        C366   1.404       .  A
C365       Br372   1.936       .  S
C366        C367   1.423   1_455  A
C366       Br371   1.937       .  S
C367        C368   1.416       .  A
C368       Br369   1.936       .  S
C373        C374   1.414       .  A
C373        C378   1.408       .  A
C373       Br380   1.931       .  S
C374        C375   1.409       .  A
C375        C376   1.410       .  A
C375       Br994   1.929   1_554  S
C376        C377   1.411       .  A
C376       Br381   1.929   1_554  S
C377        C378   1.407       .  A
C378       Br379   1.930       .  S
Br382       C987   1.929       .  S
C383        C384   1.406       .  A
C383        C388   1.408       .  A
C383       Br390   1.932       .  S
C384        C385   1.401       .  A
C385        C386   1.410       .  A
C385       Br392   1.924       .  S
C386        C387   1.425       .  A
C386      Br1003   1.934       .  S
C387        C793   1.500       .  S
C387        C388   1.426       .  A
C388       Br389   1.939       .  S
Br391       C998   1.935       .  S
C393        C394   1.424       .  A
C393        C398   1.411       .  A
C393       Br400   1.934       .  S
C394        C395   1.424       .  A
C395        C396   1.409       .  A
C395       Br402   1.939       .  S
C396        C397   1.409       .  A
C396       Br401   1.932       .  S
C397        C398   1.404       .  A
C398       Br399   1.930       .  S
C403        C404   1.420       .  A
C403        C408   1.411       .  A
C403       Br410   1.934       .  S
C404        C405   1.417       .  A
C405        C406   1.406       .  A
C405       Br412   1.932       .  S
C406        C407   1.406       .  A
C406       Br411   1.928       .  S
C407        C408   1.408       .  A
C408       Br409   1.933       .  S
C413        C414   1.414       .  A
C413        C418   1.411       .  A
C413       Br420   1.934       .  S
C414        C415   1.417       .  A
C415        C416   1.411       .  A
C415       Br422   1.934       .  S
C416        C417   1.410       .  A
C416      Br1033   1.931       .  S
C417        C418   1.415       .  A
C418       Br419   1.935       .  S
Br421      C1028   1.933   1_554  S
C423        C424   1.409       .  A
C423        C428   1.412       .  A
C423       Br430   1.934       .  S
C424        C425   1.414       .  A
C425        C426   1.412       .  A
C425       Br432   1.934       .  S
C426        C427   1.415       .  A
C426       Br431   1.933       .  S
C427        C428   1.423       .  A
C428       Br429   1.937       .  S
C433        C434   1.421       .  A
C433        C438   1.410       .  A
C433       Br440   1.937       .  S
C434        C435   1.419       .  A
C435        C436   1.406       .  A
C435       Br442   1.937       .  S
C436        C437   1.413       .  A
C436       Br441   1.936       .  S
C437        C438   1.408       .  A
C438       Br439   1.923       .  S
C443        C444   1.410       .  A
C443        C448   1.410       .  A
C443       Br450   1.935       .  S
C444        C445   1.412       .  A
C445        C446   1.405       .  A
C445       Br452   1.937       .  S
C446        C447   1.418       .  A
C446       Br451   1.934       .  S
C447        C448   1.421       .  A
C448       Br449   1.934       .  S
C453        C454   1.411       .  A
C453        C458   1.414       .  A
C453       Br460   1.934       .  S
C454        C455   1.407       .  A
C455        C456   1.413       .  A
C455       Br462   1.927       .  S
C456        C457   1.424       .  A
C456      Br1073   1.935       .  S
C457        C682   1.512       .  S
C457        C458   1.425       .  A
C458       Br459   1.936       .  S
Br461      C1068   1.936   1_554  S
C463        C464   1.422       .  A
C463        C468   1.410       .  A
C463       Br470   1.936       .  S
C464        C465   1.424       .  A
C465        C466   1.411       .  A
C465       Br472   1.936       .  S
C466        C467   1.406       .  A
C466       Br471   1.926       .  S
C467        C468   1.410       .  A
C468       Br469   1.934       .  S
C473        C474   1.407       .  A
C473        C478   1.410       .  A
C473       Br480   1.927       .  S
C474        C475   1.411       .  A
C475        C476   1.398       .  A
C475       Br482   1.933       .  S
C476        C477   1.410       .  A
C476       Br481   1.935       .  S
C477        C478   1.411       .  A
C478       Br479   1.928       .  S
C483        C484   1.426       .  A
C483        C488   1.406       .  A
C483      Br1102   1.937       .  S
C484        C710   1.490   1_554  S
C484        C485   1.419       .  A
C485        C486   1.404       .  A
C485       Br492   1.938       .  S
C486        C487   1.410       .  A
C486       Br491   1.938       .  S
C487        C488   1.402       .  A
C488       Br489   1.936       .  S
Br490      C1095   1.936       .  S
C493        C494   1.406       .  A
C493        C498   1.405   1_655  A
C493       Br500   1.931       .  S
C494        C495   1.413       .  A
C495        C496   1.412   1_655  A
C495       Br502   1.928       .  S
C496        C497   1.409       .  A
C496       Br501   1.929       .  S
C497        C498   1.416       .  A
C498       Br499   1.932       .  S
C503        C504   1.416       .  A
C503        C508   1.409       .  A
C503       Br510   1.933       .  S
C504        C505   1.413       .  A
C505        C506   1.408       .  A
C505       Br512   1.934       .  S
C506        C507   1.414       .  A
C506       Br511   1.936       .  S
C507        C508   1.407       .  A
C508       Br509   1.929       .  S
C513        C514   1.410       .  A
C513        C518   1.416       .  A
C513       Br520   1.933       .  S
C514        C515   1.415   1_545  A
C515        C516   1.410       .  A
C515       Br522   1.938       .  S
C516        C517   1.420   1_565  A
C516       Br521   1.937       .  S
C517        C518   1.425       .  A
C518       Br519   1.935       .  S
C523        C524   1.419   1_565  A
C523        C528   1.406       .  A
C523       Br530   1.934       .  S
C524        C525   1.422       .  A
C525        C526   1.415       .  A
C525       Br532   1.934       .  S
C526        C527   1.412       .  A
C526       Br531   1.933       .  S
C527        C528   1.411   1_545  A
C528       Br529   1.937       .  S
C533        C534   1.412       .  A
C533        C538   1.408       .  A
C533       Br540   1.931       .  S
C534        C535   1.411       .  A
C535        C536   1.409       .  A
C535       Br542   1.932       .  S
C536        C537   1.410       .  A
C536       Br541   1.927       .  S
C537        C538   1.407       .  A
C538      Br1151   1.928   1_554  S
Br539      C1150   1.927       .  S
C543        C544   1.413       .  A
C543        C548   1.410       .  A
C543       Br550   1.915       .  S
C544        C545   1.414       .  A
C545        C546   1.399       .  A
C545       Br552   1.936       .  S
C546        C547   1.408       .  A
C546       Br551   1.931       .  S
C547        C548   1.405       .  A
C548       Br549   1.930       .  S
C553        C554   1.416       .  A
C553        C558   1.405       .  A
C553       Br560   1.936       .  S
C554        C640   1.495   1_554  S
C554        C555   1.427       .  A
C555        C556   1.408       .  A
C555      Br1174   1.938   1_554  S
C556        C557   1.403       .  A
C556       Br561   1.935       .  S
C557        C558   1.410       .  A
C558       Br559   1.935       .  S
Br562      C1167   1.937       .  S
C563        C564   1.413       .  A
C563        C568   1.407       .  A
C563       Br570   1.921       .  S
C564        C565   1.413       .  A
C565        C566   1.411       .  A
C565       Br572   1.927       .  S
C566        C567   1.411       .  A
C566      Br1183   1.930       .  S
C567        C568   1.411       .  A
C568       Br569   1.937   1_565  S
Br571      C1178   1.928   1_554  S
C573        C574   1.405       .  A
C573        C578   1.412       .  A
C573       Br580   1.924       .  S
C574        C575   1.410       .  A
C575        C576   1.412       .  A
C575       Br582   1.934       .  S
C576        C577   1.423       .  A
C576       Br581   1.935       .  S
C577        C766   1.508       .  S
C577        C578   1.425       .  A
C578      Br1191   1.937       .  S
Br579      C1190   1.936       .  S
C583        C584   1.424       .  A
C583        C588   1.413       .  A
C583       Br590   1.935       .  S
C584        C585   1.426       .  A
C585        C586   1.413       .  A
C585       Br592   1.937       .  S
C586        C587   1.409       .  A
C586       Br591   1.934       .  S
C587        C588   1.406       .  A
C588       Br589   1.927       .  S
C593        C594   1.420       .  A
C593        C598   1.410       .  A
C593       Br600   1.930       .  S
C594        C595   1.420       .  A
C595        C596   1.411       .  A
C595       Br602   1.935       .  S
C596        C597   1.408       .  A
C596       Br601   1.933       .  S
C597        C598   1.408       .  A
C598       Br599   1.936       .  S
C603        C604   1.418       .  A
C603        C608   1.411   1_655  A
C603       Br610   1.932       .  S
C604        C605   1.422       .  A
C605        C606   1.413   1_655  A
C605       Br612   1.935       .  S
C606        C607   1.407       .  A
C606       Br611   1.931       .  S
C607        C608   1.412       .  A
C608       Br609   1.934       .  S
O613        V621   1.910       .  S
O613        C623   1.267       .  A
O614        V621   1.906       .  S
O614        C624   1.266       .  A
O615        V621   1.907       .  S
O615        C625   1.266       .  A
O616        V621   1.904       .  S
O616        C626   1.264       .  A
O617        V622   1.910       .  S
O617        C626   1.267       .  A
O618        V622   1.906       .  S
O618        C625   1.265       .  A
O619        V622   1.902       .  S
O619        C624   1.265       .  A
O620        V622   1.902       .  S
O620        C623   1.265       .  A
V621        V622   2.084       .  T
C623       C1206   1.499       .  S
C624       C1216   1.496       .  S
C625       C1199   1.486       .  S
C626       C1186   1.487       .  S
O627        V635   1.894       .  S
O627        C637   1.261       .  A
O628        V635   1.892       .  S
O628        C638   1.261       .  A
O629        V635   1.910       .  S
O629        C639   1.267       .  A
O630        V635   1.905       .  S
O630        C640   1.268       .  A
O631        V636   1.883       .  S
O631        C640   1.257       .  A
O632        V636   1.888       .  S
O632        C639   1.260       .  A
O633        V636   1.913       .  S
O633        C638   1.269       .  A
O634        V636   1.913       .  S
O634        C637   1.268       .  A
V635        V636   2.083       .  T
C637       C1219   1.484       .  S
C638       C1176   1.487       .  S
C639       C1156   1.475       .  S
O641        V649   1.907       .  S
O641        C651   1.265       .  A
O642        C652   1.264   1_545  A
O643        V649   1.909       .  S
O643        C653   1.266       .  A
O644        C654   1.268       .  A
O645        C654   1.263   1_565  A
O646        V650   1.891       .  S
O646        C653   1.263   1_565  A
O647        C652   1.265       .  A
O648        V650   1.897   1_545  S
O648        C651   1.263       .  A
V649        V650   2.084   1_545  T
C651       C1149   1.477       .  S
C652       C1179   1.484       .  S
C653       C1136   1.502       .  S
C654       C1126   1.494       .  S
O655        V663   1.891       .  S
O655        C665   1.260       .  A
O656        V663   1.891       .  S
O656        C666   1.261       .  A
O657        V663   1.911       .  S
O657        C667   1.267       .  A
O658        V663   1.907       .  S
O658        C668   1.268       .  A
O659        V664   1.877       .  S
O659        C668   1.257       .  A
O660        V664   1.881       .  S
O660        C667   1.259       .  A
O661        V664   1.911       .  S
O661        C666   1.268       .  A
O662        V664   1.908       .  S
O662        C665   1.268       .  A
V663        V664   2.088       .  T
C665       C1119   1.479       .  S
C666       C1109   1.479       .  S
C667       C1086   1.471       .  S
C668       C1099   1.470       .  S
O669        V677   1.898       .  S
O669        C679   1.264       .  A
O670        V677   1.902       .  S
O670        C680   1.264       .  A
O671        V677   1.903       .  S
O671        C681   1.265       .  A
O672        V677   1.907       .  S
O672        C682   1.266       .  A
O673        V678   1.904       .  S
O673        C682   1.265       .  A
O674        V678   1.900       .  S
O674        C681   1.264       .  A
O675        V678   1.900       .  S
O675        C680   1.264       .  A
O676        V678   1.903       .  S
O676        C679   1.264       .  A
V677        V678   2.079       .  T
C679       C1106   1.478       .  S
C680       C1146   1.480       .  S
C681       C1076   1.506       .  S
O683        V691   1.893       .  S
O683        C693   1.262       .  A
O684        V691   1.895       .  S
O684        C694   1.263       .  A
O685        V691   1.905       .  S
O685        C695   1.266       .  A
O686        V691   1.899       .  S
O686        C696   1.264       .  A
O687        V692   1.902       .  S
O687        C696   1.265       .  A
O688        V692   1.903       .  S
O688        C695   1.264       .  A
O689        V692   1.898       .  S
O689        C694   1.264       .  A
O690        V692   1.899       .  S
O690        C693   1.264       .  A
V691        V692   2.084       .  T
C693       C1046   1.498       .  S
C694       C1056   1.479       .  S
C695       C1209   1.485       .  S
C696       C1116   1.485       .  S
O697        V705   1.905       .  S
O697        C707   1.265       .  A
O698        V705   1.898       .  S
O698        C708   1.264       .  A
O699        V705   1.900       .  S
O699        C709   1.264       .  A
O700        V705   1.898       .  S
O700        C710   1.265       .  A
O701        V706   1.884       .  S
O701        C710   1.259       .  A
O702        V706   1.891       .  S
O702        C709   1.262       .  A
O703        V706   1.907       .  S
O703        C708   1.266       .  A
O704        V706   1.902       .  S
O704        C707   1.266       .  A
V705        V706   2.080       .  T
C707       C1036   1.488       .  S
C708       C1026   1.491       .  S
C709       C1089   1.469       .  S
O711        V719   1.909       .  S
O711        C721   1.268       .  A
O712        V719   1.909       .  S
O712        C722   1.267       .  A
O713        V719   1.899       .  S
O713        C723   1.263       .  A
O714        V719   1.903       .  S
O714        C724   1.265       .  A
O715        V720   1.903       .  S
O715        C724   1.265       .  A
O716        V720   1.906       .  S
O716        C723   1.266       .  A
O717        V720   1.891       .  S
O717        C722   1.262       .  A
O718        V720   1.898       .  S
O718        C721   1.263       .  A
V719        V720   2.085       .  T
C721       C1039   1.496       .  S
C722       C1016   1.492       .  S
C723        C996   1.480       .  S
C724       C1009   1.484       .  S
O725        C735   1.267   1_655  A
O726        V733   1.910       .  S
O726        C736   1.267       .  A
O727        C737   1.260   1_655  A
O728        V733   1.886       .  S
O728        C738   1.259       .  A
O729        V734   1.899       .  S
O729        C738   1.266   1_455  A
O730        C737   1.266       .  A
O731        V734   1.897       .  S
O731        C736   1.263   1_455  A
O732        C735   1.262       .  A
V733        V734   2.087   1_655  T
C735       C1029   1.488       .  S
C736        C986   1.481       .  S
C737        C969   1.471       .  S
C738        C976   1.473       .  S
O739        V747   1.901       .  S
O739        C749   1.264       .  A
O740        V747   1.899       .  S
O740        C750   1.263       .  A
O741        V747   1.897       .  S
O741        C751   1.264       .  A
O742        V747   1.896       .  S
O742        C752   1.264       .  A
O743        V748   1.884       .  S
O743        C752   1.260       .  A
O744        V748   1.885       .  S
O744        C751   1.260       .  A
O745        V748   1.910       .  S
O745        C750   1.267       .  A
O746        V748   1.912       .  S
O746        C749   1.268       .  A
V747        V748   2.087       .  T
C749        C959   1.490       .  S
C750        C946   1.486       .  S
C751        C926   1.465       .  S
C752        C936   1.469       .  S
O753        V761   1.904       .  S
O753        C763   1.265       .  A
O754        V761   1.903       .  S
O754        C764   1.264       .  A
O755        V761   1.901       .  S
O755        C765   1.264       .  A
O756        V761   1.899       .  S
O756        C766   1.264       .  A
O757        V762   1.906       .  S
O757        C766   1.266       .  A
O758        V762   1.905       .  S
O758        C765   1.265       .  A
O759        V762   1.903       .  S
O759        C764   1.265       .  A
O760        V762   1.903       .  S
O760        C763   1.264       .  A
V761        V762   2.079       .  T
C763        C949   1.482       .  S
C764        C989   1.479       .  S
C765       C1196   1.508       .  S
O767        V775   1.898   1_545  S
O767        C777   1.263       .  A
O768        V775   1.905       .  S
O768        C778   1.266       .  A
O769        V775   1.900       .  S
O769        C779   1.265   1_565  A
O770        V775   1.895       .  S
O770        C780   1.263   1_565  A
O771        V776   1.905       .  S
O771        C780   1.265       .  A
O772        V776   1.911       .  S
O772        C779   1.266       .  A
O773        V776   1.907       .  S
O773        C778   1.266   1_545  A
O774        V776   1.906       .  S
O774        C777   1.266       .  A
V775        V776   2.083   1_565  T
C777       C1019   1.483       .  S
C778        C956   1.495       .  S
C779       C1129   1.509       .  S
C780       C1139   1.482       .  S
O781        V789   1.898       .  S
O781        C791   1.264       .  A
O782        V789   1.900       .  S
O782        C792   1.264       .  A
O783        V789   1.903       .  S
O783        C793   1.264       .  A
O784        V789   1.902       .  S
O784        C794   1.263       .  A
O785        V790   1.898       .  S
O785        C794   1.265       .  A
O786        V790   1.894       .  S
O786        C793   1.263       .  A
O787        V790   1.900       .  S
O787        C792   1.264       .  A
O788        V790   1.905       .  S
O788        C791   1.265       .  A
V789        V790   2.079       .  T
C791        C919   1.482       .  S
C792        C906   1.479       .  S
C794       C1006   1.508       .  S
O795        V803   1.907       .  S
O795        C805   1.266       .  A
O796        C806   1.264       .  A
O797        V803   1.904       .  S
O797        C807   1.264       .  A
O798        C808   1.266       .  A
O799        C808   1.262       .  A
O800        V804   1.892       .  S
O800        C807   1.263       .  A
O801        C806   1.266       .  A
O802        V804   1.902       .  S
O802        C805   1.265       .  A
V803        V804   2.082       .  T
C805        C916   1.493       .  S
C806        C896   1.498       .  S
C807       C1059   1.502       .  S
C808       C1049   1.484       .  S
O809        V817   1.885       .  S
O809        C819   1.260       .  A
O810        V817   1.885       .  S
O810        C820   1.260       .  A
O811        V817   1.905       .  S
O811        C821   1.267       .  A
O812        V817   1.906       .  S
O812        C822   1.266       .  A
O813        V818   1.895       .  S
O813        C822   1.263       .  A
O814        V818   1.900       .  S
O814        C821   1.263       .  A
O815        V818   1.903       .  S
O815        C820   1.266       .  A
O816        V818   1.902       .  S
O816        C819   1.265       .  A
V817        V818   2.088       .  T
C819       C1159   1.466       .  S
C820       C1169   1.474       .  S
C821        C889   1.486       .  S
C822        C909   1.480       .  S
O823        V831   1.907       .  S
O823        C833   1.267       .  A
O824        V831   1.904       .  S
O824        C834   1.266   1_455  A
O825        V831   1.887       .  S
O825        C835   1.260   1_455  A
O826        V831   1.893       .  S
O826        C836   1.263       .  A
O827        V832   1.899       .  S
O827        C836   1.264   1_655  A
O828        V832   1.896       .  S
O828        C835   1.265       .  A
O829        V832   1.906       .  S
O829        C834   1.266       .  A
O830        V832   1.899   1_455  S
O830        C833   1.264       .  A
V831        V832   2.082   1_455  T
C833        C886   1.488       .  S
C834        C879   1.489       .  S
C835        C979   1.486       .  S
C836        C966   1.469       .  S
O837        V845   1.900       .  S
O837        C847   1.263       .  A
O838        V845   1.908       .  S
O838        C848   1.266       .  A
O839        V845   1.908       .  S
O839        C849   1.267       .  A
O840        V845   1.904       .  S
O840        C850   1.266       .  A
O841        V846   1.904       .  S
O841        C850   1.265       .  A
O842        V846   1.905       .  S
O842        C849   1.266       .  A
O843        V846   1.909       .  S
O843        C848   1.266       .  A
O844        V846   1.911       .  S
O844        C847   1.267       .  A
V845        V846   2.083       .  T
C847       C1079   1.488       .  S
C848       C1066   1.493       .  S
C849        C876   1.500       .  S
C850        C866   1.498       .  S
O851        V859   1.887       .  S
O851        C861   1.260       .  A
O852        V859   1.885       .  S
O852        C862   1.258       .  A
O853        V859   1.907       .  S
O853        C863   1.267       .  A
O854        V859   1.912       .  S
O854        C864   1.268       .  A
O855        V860   1.894       .  S
O855        C864   1.262       .  A
O856        V860   1.898       .  S
O856        C863   1.263       .  A
O857        V860   1.894       .  S
O857        C862   1.265       .  A
O858        V860   1.904       .  S
O858        C861   1.265       .  A
V859        V860   2.083       .  T
C861        C929   1.468       .  S
C863        C869   1.486       .  S
C864        C899   1.496       .  S
C865        C866   1.419       .  A
C865        C870   1.411   1_545  A
C865       Br872   1.931       .  S
C866        C867   1.420       .  A
C867        C868   1.412   1_545  A
C867       Br874   1.933       .  S
C868        C869   1.408       .  A
C868       Br873   1.932       .  S
C869        C870   1.413       .  A
C870       Br871   1.937       .  S
C875        C876   1.418       .  A
C875        C880   1.412       .  A
C875       Br882   1.929       .  S
C876        C877   1.421       .  A
C877        C878   1.413       .  A
C877       Br884   1.935       .  S
C878        C879   1.410       .  A
C878       Br883   1.933       .  S
C879        C880   1.412       .  A
C880       Br881   1.935       .  S
C885        C886   1.417       .  A
C885        C890   1.409       .  A
C885       Br892   1.933   1_455  S
C886        C887   1.412       .  A
C887        C888   1.412       .  A
C887       Br894   1.932       .  S
C888        C889   1.416       .  A
C888       Br893   1.933       .  S
C889        C890   1.407       .  A
C890       Br891   1.931       .  S
C895        C896   1.419       .  A
C895        C900   1.411       .  A
C895       Br902   1.939       .  S
C896        C897   1.417       .  A
C897        C898   1.412       .  A
C897       Br904   1.933   1_556  S
C898        C899   1.416       .  A
C898       Br903   1.933       .  S
C899        C900   1.417       .  A
C900       Br901   1.934       .  S
C905        C906   1.412       .  A
C905        C910   1.409   1_545  A
C905       Br912   1.932       .  S
C906        C907   1.410       .  A
C907        C908   1.408   1_545  A
C907       Br914   1.932       .  S
C908        C909   1.414       .  A
C908       Br913   1.934       .  S
C909        C910   1.410       .  A
C910       Br911   1.930       .  S
C915        C916   1.416       .  A
C915        C920   1.409       .  A
C915       Br922   1.926       .  S
C916        C917   1.419       .  A
C917        C918   1.412       .  A
C917       Br924   1.934       .  S
C918        C919   1.407       .  A
C918       Br923   1.928       .  S
C919        C920   1.409       .  A
C920       Br921   1.935       .  S
C925        C926   1.407       .  A
C925        C930   1.408       .  A
C925       Br932   1.927       .  S
C926        C927   1.409       .  A
C927        C928   1.397       .  A
C927       Br934   1.935       .  S
C928        C929   1.410       .  A
C928       Br933   1.933       .  S
C929        C930   1.408       .  A
C930       Br931   1.921       .  S
C935        C936   1.404       .  A
C935        C940   1.407       .  A
C935       Br942   1.936       .  S
C936        C937   1.410       .  A
C937        C938   1.403       .  A
C937       Br944   1.937       .  S
C938        C939   1.418       .  A
C938       Br943   1.938       .  S
C939        C940   1.425       .  A
C945        C946   1.411       .  A
C945        C950   1.411       .  A
C945       Br952   1.930       .  S
C946        C947   1.417       .  A
C947        C948   1.410       .  A
C947       Br954   1.933       .  S
C948        C949   1.409       .  A
C948       Br953   1.933       .  S
C949        C950   1.413       .  A
C950       Br951   1.931       .  S
C955        C956   1.419       .  A
C955        C960   1.414       .  A
C955       Br962   1.934   1_565  S
C956        C957   1.415       .  A
C957        C958   1.411       .  A
C957       Br964   1.933       .  S
C958        C959   1.415       .  A
C958       Br963   1.934       .  S
C959        C960   1.410       .  A
C960       Br961   1.931       .  S
C965        C966   1.408       .  A
C965        C970   1.397       .  A
C965       Br972   1.934       .  S
C966        C967   1.410       .  A
C967        C968   1.411       .  A
C967       Br974   1.928       .  S
C968        C969   1.409       .  A
C968       Br973   1.924       .  S
C969        C970   1.411       .  A
C970       Br971   1.931   1_455  S
C975        C976   1.412       .  A
C975        C980   1.405       .  A
C975       Br982   1.935       .  S
C976        C977   1.405   1_655  A
C977        C978   1.405       .  A
C977       Br984   1.935       .  S
C978        C979   1.423   1_455  A
C978       Br983   1.937       .  S
C979        C980   1.416       .  A
C980       Br981   1.936       .  S
C985        C986   1.414       .  A
C985        C990   1.408       .  A
C985       Br992   1.931       .  S
C986        C987   1.409       .  A
C987        C988   1.411       .  A
C988        C989   1.412       .  A
C988       Br993   1.929       .  S
C989        C990   1.407       .  A
C990       Br991   1.930       .  S
C995        C996   1.407       .  A
C995       C1000   1.409       .  A
C995      Br1002   1.934       .  S
C996        C997   1.402       .  A
C997        C998   1.410       .  A
C997      Br1004   1.926       .  S
C998        C999   1.426       .  A
C999       C1000   1.425       .  A
C1000     Br1001   1.938       .  S
C1005      C1006   1.427       .  A
C1005      C1010   1.412       .  A
C1005     Br1012   1.937       .  S
C1006      C1007   1.426       .  A
C1007      C1008   1.411       .  A
C1007     Br1014   1.939       .  S
C1008      C1009   1.410       .  A
C1008     Br1013   1.935       .  S
C1009      C1010   1.405       .  A
C1010     Br1011   1.931       .  S
C1015      C1016   1.419       .  A
C1015      C1020   1.412       .  A
C1015     Br1022   1.935       .  S
C1016      C1017   1.418       .  A
C1017      C1018   1.407       .  A
C1017     Br1024   1.933       .  S
C1018      C1019   1.408       .  A
C1018     Br1023   1.928       .  S
C1019      C1020   1.410       .  A
C1020     Br1021   1.932       .  S
C1025      C1026   1.414       .  A
C1025      C1030   1.411       .  A
C1025     Br1032   1.934       .  S
C1026      C1027   1.418       .  A
C1027      C1028   1.411       .  A
C1027     Br1034   1.934       .  S
C1028      C1029   1.411       .  A
C1029      C1030   1.416       .  A
C1030     Br1031   1.935       .  S
C1035      C1036   1.409       .  A
C1035      C1040   1.411       .  A
C1035     Br1042   1.934       .  S
C1036      C1037   1.414       .  A
C1037      C1038   1.412       .  A
C1037     Br1044   1.933       .  S
C1038      C1039   1.415       .  A
C1038     Br1043   1.931       .  S
C1039      C1040   1.422       .  A
C1040     Br1041   1.937       .  S
C1045      C1046   1.421       .  A
C1045      C1050   1.408       .  A
C1045     Br1052   1.938       .  S
C1046      C1047   1.419       .  A
C1047      C1048   1.408       .  A
C1047     Br1054   1.936       .  S
C1048      C1049   1.414       .  A
C1048     Br1053   1.937       .  S
C1049      C1050   1.408       .  A
C1050     Br1051   1.924       .  S
C1055      C1056   1.407       .  A
C1055      C1060   1.412       .  A
C1055     Br1062   1.935       .  S
C1056      C1057   1.409       .  A
C1057      C1058   1.406       .  A
C1057     Br1064   1.937       .  S
C1058      C1059   1.423       .  A
C1058     Br1063   1.938       .  S
C1059      C1060   1.425       .  A
C1060     Br1061   1.935       .  S
C1065      C1066   1.412       .  A
C1065      C1070   1.415       .  A
C1065     Br1072   1.935       .  S
C1066      C1067   1.408       .  A
C1067      C1068   1.413       .  A
C1067     Br1074   1.927       .  S
C1068      C1069   1.423       .  A
C1069      C1070   1.424       .  A
C1070     Br1071   1.936   1_556  S
C1075      C1076   1.422       .  A
C1075      C1080   1.411       .  A
C1075     Br1082   1.936       .  S
C1076      C1077   1.425       .  A
C1077      C1078   1.412       .  A
C1077     Br1084   1.937       .  S
C1078      C1079   1.406       .  A
C1078     Br1083   1.926       .  S
C1079      C1080   1.411       .  A
C1080     Br1081   1.935       .  S
C1085      C1086   1.408       .  A
C1085      C1090   1.411       .  A
C1085     Br1092   1.924       .  S
C1086      C1087   1.411       .  A
C1087      C1088   1.398       .  A
C1087     Br1094   1.934       .  S
C1088      C1089   1.409       .  A
C1088     Br1093   1.934       .  S
C1089      C1090   1.410       .  A
C1090     Br1091   1.928       .  S
C1095      C1096   1.426       .  A
C1095      C1100   1.407       .  A
C1096      C1097   1.419       .  A
C1097      C1098   1.404       .  A
C1097     Br1104   1.938       .  S
C1098      C1099   1.411       .  A
C1098     Br1103   1.938       .  S
C1099      C1100   1.403       .  A
C1100     Br1101   1.935       .  S
C1105      C1106   1.406       .  A
C1105      C1110   1.406   1_655  A
C1105     Br1112   1.931       .  S
C1106      C1107   1.413       .  A
C1107      C1108   1.411   1_655  A
C1107     Br1114   1.927       .  S
C1108      C1109   1.408       .  A
C1108     Br1113   1.930       .  S
C1109      C1110   1.415       .  A
C1110     Br1111   1.932       .  S
C1115      C1116   1.416       .  A
C1115      C1120   1.408       .  A
C1115     Br1122   1.933       .  S
C1116      C1117   1.415       .  A
C1117      C1118   1.409       .  A
C1117     Br1124   1.932       .  S
C1118      C1119   1.412       .  A
C1118     Br1123   1.934       .  S
C1119      C1120   1.406       .  A
C1120     Br1121   1.927       .  S
C1125      C1126   1.411       .  A
C1125      C1130   1.416       .  A
C1125     Br1132   1.933       .  S
C1126      C1127   1.416   1_545  A
C1127      C1128   1.411       .  A
C1127     Br1134   1.938       .  S
C1128      C1129   1.421   1_565  A
C1128     Br1133   1.937       .  S
C1129      C1130   1.424       .  A
C1130     Br1131   1.934       .  S
C1135      C1136   1.420   1_565  A
C1135      C1140   1.405       .  A
C1135     Br1142   1.937       .  S
C1136      C1137   1.423       .  A
C1137      C1138   1.414       .  A
C1137     Br1144   1.934       .  S
C1138      C1139   1.409       .  A
C1138     Br1143   1.933       .  S
C1139      C1140   1.410   1_545  A
C1140     Br1141   1.937       .  S
C1145      C1146   1.413       .  A
C1145      C1150   1.408       .  A
C1145     Br1152   1.931       .  S
C1146      C1147   1.411       .  A
C1147      C1148   1.410       .  A
C1147     Br1154   1.932       .  S
C1148      C1149   1.410       .  A
C1148     Br1153   1.927       .  S
C1149      C1150   1.406       .  A
C1155      C1156   1.411       .  A
C1155      C1160   1.409       .  A
C1155     Br1162   1.917       .  S
C1156      C1157   1.413       .  A
C1157      C1158   1.398       .  A
C1157     Br1164   1.934       .  S
C1158      C1159   1.408       .  A
C1158     Br1163   1.933       .  S
C1159      C1160   1.406       .  A
C1160     Br1161   1.928       .  S
C1165      C1166   1.415       .  A
C1165      C1170   1.404       .  A
C1165     Br1172   1.935       .  S
C1166      C1167   1.426       .  A
C1167      C1168   1.409       .  A
C1168      C1169   1.405       .  A
C1168     Br1173   1.935       .  S
C1169      C1170   1.411       .  A
C1170     Br1171   1.935       .  S
C1175      C1176   1.413       .  A
C1175      C1180   1.407       .  A
C1175     Br1182   1.925       .  S
C1176      C1177   1.412       .  A
C1177      C1178   1.410       .  A
C1177     Br1184   1.930       .  S
C1178      C1179   1.412       .  A
C1179      C1180   1.413       .  A
C1180     Br1181   1.936   1_565  S
C1185      C1186   1.405       .  A
C1185      C1190   1.411       .  A
C1185     Br1192   1.924       .  S
C1186      C1187   1.410       .  A
C1187      C1188   1.413       .  A
C1187     Br1194   1.934       .  S
C1188      C1189   1.425       .  A
C1188     Br1193   1.935       .  S
C1189      C1190   1.425       .  A
C1195      C1196   1.424       .  A
C1195      C1200   1.412       .  A
C1195     Br1202   1.935       .  S
C1196      C1197   1.426       .  A
C1197      C1198   1.412       .  A
C1197     Br1204   1.937       .  S
C1198      C1199   1.409       .  A
C1198     Br1203   1.935       .  S
C1199      C1200   1.405       .  A
C1200     Br1201   1.926       .  S
C1205      C1206   1.419       .  A
C1205      C1210   1.410       .  A
C1205     Br1212   1.930       .  S
C1206      C1207   1.421       .  A
C1207      C1208   1.413       .  A
C1207     Br1214   1.934       .  S
C1208      C1209   1.408       .  A
C1208     Br1213   1.932       .  S
C1209      C1210   1.409       .  A
C1210     Br1211   1.934       .  S
C1215      C1216   1.417       .  A
C1215      C1220   1.410   1_655  A
C1215     Br1222   1.932       .  S
C1216      C1217   1.422       .  A
C1217      C1218   1.412   1_655  A
C1217     Br1224   1.934       .  S
C1218      C1219   1.407       .  A
C1218     Br1223   1.932       .  S
C1219      C1220   1.412       .  A
C1220     Br1221   1.935       .  S
