geometry optimzed in LAMMPS
_audit_creation_date              2020-12-01 
_audit_creation_method            'lammps2cif' 
_symmetry_space_group_name_H-M    'P1' 
_symmetry_Int_Tables_number       1 
_symmetry_cell_setting            triclinic 
loop_ 
_symmetry_equiv_pos_as_xyz 
  x,y,z 
_cell_length_a                    50.88236644 
_cell_length_b                    50.9653606488306 
_cell_length_c                    51.00410167635527 
_cell_angle_alpha                 90.15531139817567 
_cell_angle_beta                  89.98569314731012 
_cell_angle_gamma                 89.85163494419271 
loop_ 
_atom_site_label 
_atom_site_type_symbol 
_atom_site_fract_x 
_atom_site_fract_y 
_atom_site_fract_z 
_atom_site_charge 
O1          O  0.03107561  0.51572560  0.83445118    -0.71700
O2          O  0.04567036  0.47591999  0.89608702    -0.71900
O3          O  0.07373425  0.49309866  0.85532347    -0.71700
O4          O  0.00327410  0.49911871  0.87633999    -0.71700
O5          O  0.99406590  0.46183391  0.85792676    -0.71700
O6          O  0.06413991  0.45865349  0.83210608    -0.71700
O7          O  0.03884303  0.44013611  0.87401367    -0.71700
O8          O  0.01921996  0.47995685  0.81474765    -0.71800
V9          V  0.03819222  0.49537327  0.86505130     1.35200
V10         V  0.02917671  0.46090587  0.84495347     1.35200
C11         C  0.02287707  0.50443938  0.81383641     0.77600
C12         C  0.04474680  0.45106437  0.89541947     0.77600
C13         C  0.08109209  0.47484737  0.84034134     0.77500
C14         C  0.98723593  0.48066087  0.87269078     0.77500
O15         O  0.02249487  0.34406120  0.03008268    -0.71700
O16         O  0.06244973  0.40539821  0.04625362    -0.71900
O17         O  0.03712552  0.38811321  0.00405520    -0.71700
O18         O  0.04722086  0.36284504  0.07229650    -0.71700
O19         O  0.08334471  0.34335683  0.06048973    -0.71700
O20         O  0.07226045  0.36788123  0.99054906    -0.71700
O21         O  0.09760182  0.38526551  0.03251165    -0.71700
O22         O  0.05834116  0.32439636  0.01810101    -0.71800
V23         V  0.04290212  0.37457534  0.03779651     1.35200
V24         V  0.07709295  0.35543041  0.02557966     1.35200
C25         C  0.03398717  0.32325535  0.02244382     0.77600
C26         C  0.08690401  0.40564178  0.04159468     0.77600
C27         C  0.05376764  0.38402163  0.98621268     0.77500
C28         C  0.06745343  0.35007910  0.07847492     0.77500
O29         O  0.82716627  0.49852873  0.99373259    -0.71700
O30         O  0.89113083  0.48378146  0.95819832    -0.71900
O31         O  0.87018083  0.52614498  0.98042322    -0.71700
O32         O  0.84865623  0.45576445  0.97179542    -0.71700
O33         O  0.82743447  0.46646094  0.93656516    -0.71700
O34         O  0.85528526  0.53553594  0.94163095    -0.71700
O35         O  0.87143470  0.49033958  0.92095919    -0.71700
O36         O  0.81007101  0.51179552  0.95712955    -0.71800
V37         V  0.85885960  0.49123675  0.97539795     1.35200
V38         V  0.84126388  0.50090602  0.93981699     1.35200
C39         C  0.80764359  0.50781512  0.98146294     0.77600
C40         C  0.89207443  0.48476263  0.93343653     0.77600
C41         C  0.86817376  0.54225341  0.96178024     0.77500
C42         C  0.83423113  0.44898789  0.95281670     0.77500
O43         O  0.18716328  0.54452692  0.02367002    -0.71700
O44         O  0.12335729  0.55564251  0.06147393    -0.71900
O45         O  0.16390293  0.58562218  0.04697167    -0.71700
O46         O  0.14567309  0.51477225  0.03755697    -0.71700
O47         O  0.16187035  0.50526508  0.07580619    -0.71700
O48         O  0.18663065  0.57540508  0.08141174    -0.71700
O49         O  0.14453033  0.54932988  0.09792323    -0.71700
O50         O  0.20544075  0.53125810  0.05968148    -0.71800
V51         V  0.15545663  0.54991542  0.04301780     1.35200
V52         V  0.17440512  0.54040847  0.07794024     1.35200
C53         C  0.20743814  0.53625205  0.03554212     0.77600
C54         C  0.12333496  0.55455862  0.08630530     0.77600
C55         C  0.17827691  0.59278567  0.06577041     0.77500
C56         C  0.14876139  0.49846544  0.05583014     0.77500
O57         O  0.98607699  0.53386415  0.19097440    -0.71700
O58         O  0.96983993  0.57223335  0.12874530    -0.71900
O59         O  0.01215733  0.54719337  0.14662625    -0.71700
O60         O  0.94361807  0.55823070  0.17209270    -0.71700
O61         O  0.95628256  0.59357832  0.19210371    -0.71700
O62         O  0.02502400  0.58384859  0.16411019    -0.71700
O63         O  0.98141111  0.60814510  0.14843981    -0.71700
O64         O  0.00004237  0.56992560  0.20877742    -0.71800
V65         V  0.97825689  0.55349405  0.16002381     1.35200
V66         V  0.99052606  0.58810032  0.17807964     1.35200
C67         C  0.99487676  0.54585792  0.21093507     0.77600
C68         C  0.97283234  0.59693888  0.12815097     0.77600
C69         C  0.02983815  0.56423308  0.14956778     0.77500
C70         C  0.93804995  0.57766811  0.18634412     0.77500
O71         O  0.99629799  0.69544914  0.99009023    -0.71700
O72         O  0.95537961  0.63512994  0.97140738    -0.71900
O73         O  0.97264234  0.67796607  0.94650572    -0.71700
O74         O  0.97963876  0.65121108  0.01478320    -0.71700
O75         O  0.94435317  0.67194294  0.02716389    -0.71700
O76         O  0.93692929  0.69859408  0.95768007    -0.71700
O77         O  0.92020058  0.65602445  0.98382368    -0.71700
O78         O  0.96044650  0.71540008  0.00149706    -0.71800
V79         V  0.97539797  0.66543325  0.98100332     1.35200
V80         V  0.94124501  0.68518517  0.99232723     1.35200
C81         C  0.98496551  0.71620446  0.99819051     0.77600
C82         C  0.93075252  0.63533845  0.97523516     0.77600
C83         C  0.95353866  0.69235685  0.94019465     0.77500
C84         C  0.96255241  0.65569626  0.03211222     0.77500
O85         O  0.82553259  0.54126098  0.53494599    -0.71700
O86         O  0.88771348  0.56201022  0.57198101    -0.71900
O87         O  0.87166225  0.51790447  0.54905261    -0.71700
O88         O  0.84310523  0.58547554  0.55725282    -0.71700
O89         O  0.82685411  0.57492094  0.59503700    -0.71700
O90         O  0.85229191  0.50472725  0.58459814    -0.71700
O91         O  0.87003491  0.54783002  0.60803351    -0.71700
O92         O  0.80738559  0.53150860  0.57215713    -0.71800
V93         V  0.85653165  0.55130097  0.55391745     1.35200
V94         V  0.83931545  0.53986668  0.58916180     1.35200
C95         C  0.80525567  0.53434760  0.54769207     0.77600
C96         C  0.88943990  0.55771159  0.59639561     0.77600
C97         C  0.86822997  0.50024658  0.56593748     0.77500
C98         C  0.83137019  0.59237111  0.57790765     0.77500
O99         O  0.99765402  0.34563935  0.53726603    -0.71700
O100        O  0.95903752  0.40801730  0.55392561    -0.71900
O101        O  0.97256330  0.36454690  0.57958373    -0.71700
O102        O  0.98492352  0.39017652  0.51190558    -0.71700
O103        O  0.94865997  0.37294470  0.49795269    -0.71700
O104        O  0.93695724  0.34515819  0.56649493    -0.71700
O105        O  0.92320633  0.38879267  0.54125002    -0.71700
O106        O  0.96179766  0.32781713  0.52292282    -0.71800
V107        V  0.97790356  0.37662373  0.54533341     1.35200
V108        V  0.94342123  0.35889045  0.53230234     1.35200
C109        C  0.98613853  0.32586871  0.52743281     0.77600
C110        C  0.93432149  0.40880580  0.55065220     0.77600
C111        C  0.95228681  0.35160624  0.58501352     0.77500
C112        C  0.96853390  0.38733539  0.49367869     0.77500
O113        O  0.98646532  0.50605839  0.33162771    -0.71700
O114        O  0.97890610  0.47166138  0.39746881    -0.71900
O115        O  0.01867651  0.49359095  0.37142676    -0.71700
O116        O  0.94637459  0.48498324  0.35865519    -0.71700
O117        O  0.95452828  0.45016372  0.33531137    -0.71700
O118        O  0.02602537  0.45377498  0.35784486    -0.71700
O119        O  0.98149585  0.43417927  0.37712059    -0.71700
O120        O  0.99917020  0.46921547  0.31445658    -0.71800
V121        V  0.98275889  0.48848341  0.36435158     1.35200
V122        V  0.99026837  0.45253939  0.34635372     1.35200
C123        C  0.99455662  0.49339039  0.31172810     0.77600
C124        C  0.97811945  0.44682583  0.39809477     0.77600
C125        C  0.03421200  0.47447271  0.36897898     0.77500
C126        C  0.93802847  0.46625209  0.34486343     0.77500
O127        O  0.18333652  0.50045475  0.50192008    -0.71700
O128        O  0.12325342  0.48687499  0.45886479    -0.71900
O129        O  0.16406153  0.45887897  0.47582970    -0.71700
O130        O  0.14132402  0.52871480  0.48543135    -0.71700
O131        O  0.16237381  0.54067382  0.45037673    -0.71700
O132        O  0.18677031  0.47051826  0.44177768    -0.71700
O133        O  0.14581826  0.49846549  0.42464962    -0.71700
O134        O  0.20469106  0.51293893  0.46742981    -0.71800
V135        V  0.15347466  0.49408464  0.47994190     1.35200
V136        V  0.17461015  0.50549360  0.44684760     1.35200
C137        C  0.20467412  0.50834558  0.49174362     0.77600
C138        C  0.12463953  0.49005127  0.43424815     0.77600
C139        C  0.17868373  0.45257916  0.45688036     0.77500
C140        C  0.14681165  0.54626270  0.46893709     0.77500
O141        O  0.02903625  0.54259967  0.69230853    -0.71700
O142        O  0.04405163  0.57888833  0.62863411    -0.71900
O143        O  0.07185311  0.56331955  0.67022667    -0.71700
O144        O  0.00121499  0.55719614  0.64994641    -0.71700
O145        O  0.99254576  0.59584712  0.66590952    -0.71700
O146        O  0.06275013  0.59890829  0.69196022    -0.71700
O147        O  0.03800377  0.61585569  0.64899575    -0.71700
O148        O  0.01750089  0.57961491  0.71010292    -0.71800
V149        V  0.03628696  0.56116895  0.66065687     1.35200
V150        V  0.02776090  0.59682348  0.67894539     1.35200
C151        C  0.02106959  0.55519838  0.71227510     0.77600
C152        C  0.04425793  0.60378676  0.62831922     0.77600
C153        C  0.07940330  0.58182677  0.68474309     0.77500
C154        C  0.98517804  0.57577881  0.65319020     0.77500
O155        O  0.02400893  0.70465253  0.49158751    -0.71700
O156        O  0.06218587  0.64260625  0.47281695    -0.71900
O157        O  0.03913472  0.66014447  0.51618358    -0.71700
O158        O  0.04643049  0.68599887  0.44776000    -0.71700
O159        O  0.08319118  0.70469970  0.45806581    -0.71700
O160        O  0.07535217  0.67919481  0.52814012    -0.71700
O161        O  0.09831968  0.66189300  0.48482834    -0.71700
O162        O  0.06072869  0.72337296  0.50216123    -0.71800
V163        V  0.04357790  0.67385905  0.48234825     1.35200
V164        V  0.07861848  0.69210474  0.49308996     1.35200
C165        C  0.03610336  0.72488326  0.49962459     0.77600
C166        C  0.08678701  0.64167064  0.47659201     0.77600
C167        C  0.05669364  0.66356023  0.53322777     0.77500
C168        C  0.06618835  0.69899234  0.44074999     0.77500
O169        O  0.53146458  0.53928876  0.83596898    -0.71700
O170        O  0.55082327  0.58012483  0.89578377    -0.71900
O171        O  0.50736173  0.55556852  0.88031917    -0.71700
O172        O  0.57512139  0.56301032  0.85258987    -0.71700
O173        O  0.56345921  0.59840544  0.83214405    -0.71700
O174        O  0.49441887  0.59120326  0.86098009    -0.71700
O175        O  0.53873050  0.61536575  0.87530994    -0.71700
O176        O  0.51892740  0.57484626  0.81641405    -0.71800
V177        V  0.54085269  0.56014156  0.86569823     1.35200
V178        V  0.52901407  0.59420522  0.84646919     1.35200
C179        C  0.52263673  0.55037492  0.81551871     0.77600
C180        C  0.54811222  0.60489134  0.89561380     0.77600
C181        C  0.48982243  0.57265608  0.87687039     0.77500
C182        C  0.58128526  0.58207579  0.83824980     0.77500
O183        O  0.32776668  0.54438703  0.99394941    -0.71700
O184        O  0.39260934  0.55667575  0.95893587    -0.71900
O185        O  0.35190322  0.58613420  0.97330604    -0.71700
O186        O  0.36940582  0.51476112  0.98013580    -0.71700
O187        O  0.35497571  0.50711766  0.94074259    -0.71700
O188        O  0.32932272  0.57741030  0.93815085    -0.71700
O189        O  0.37251036  0.55261112  0.92159528    -0.71700
O190        O  0.31050807  0.53215152  0.95705417    -0.71800
V191        V  0.35999586  0.55023964  0.97596140     1.35200
V192        V  0.34205676  0.54233408  0.94009904     1.35200
C193        C  0.30786185  0.53637651  0.98133430     0.77600
C194        C  0.39322990  0.55780854  0.93413054     0.77600
C195        C  0.33775215  0.59395878  0.95464999     0.77500
C196        C  0.36696558  0.49924367  0.96102224     0.77500
O197        O  0.49124978  0.34401920  0.99397285    -0.71700
O198        O  0.45123241  0.40467609  0.97443881    -0.71900
O199        O  0.47595262  0.38940196  0.01790564    -0.71700
O200        O  0.46721975  0.36068123  0.95047683    -0.71700
O201        O  0.43149528  0.34103920  0.96277630    -0.71700
O202        O  0.44032528  0.37032385  0.03140087    -0.71700
O203        O  0.41587121  0.38486499  0.98759289    -0.71700
O204        O  0.45531238  0.32537757  0.00688544    -0.71800
V205        V  0.47081458  0.37423358  0.98457136     1.35200
V206        V  0.43651798  0.35568856  0.99698317     1.35200
C207        C  0.47965626  0.32376643  0.00264913     0.77600
C208        C  0.42659474  0.40499635  0.97818679     0.77600
C209        C  0.45910432  0.38607929  0.03570387     0.77500
C210        C  0.44780504  0.34649596  0.94479145     0.77500
O211        O  0.48851441  0.51161039  0.19285154    -0.71700
O212        O  0.47225585  0.47470265  0.12946561    -0.71900
O213        O  0.44559259  0.48928356  0.17224211    -0.71700
O214        O  0.51502190  0.49765650  0.14877709    -0.71700
O215        O  0.52608102  0.46001148  0.16525650    -0.71700
O216        O  0.45631070  0.45342420  0.19231258    -0.71700
O217        O  0.48138371  0.43800527  0.14895039    -0.71700
O218        O  0.50108000  0.47498911  0.21031534    -0.71800
V219        V  0.48067001  0.49268945  0.16131872     1.35200
V220        V  0.49114057  0.45740435  0.17902947     1.35200
C221        C  0.49692095  0.49930939  0.21279876     0.77600
C222        C  0.47385955  0.44986504  0.12861096     0.77600
C223        C  0.43870403  0.46976635  0.18559969     0.77500
C224        C  0.53174788  0.47950729  0.15092913     0.77500
O225        O  0.52660286  0.70426598  0.03296173    -0.71700
O226        O  0.56664275  0.64317591  0.05026751    -0.71900
O227        O  0.54898452  0.68526273  0.07637489    -0.71700
O228        O  0.54353791  0.66082424  0.00710363    -0.71700
O229        O  0.57860774  0.68232527  0.99590185    -0.71700
O230        O  0.58589829  0.70443219  0.06733446    -0.71700
O231        O  0.60210598  0.66358999  0.03834399    -0.71700
O232        O  0.56295342  0.72474990  0.02452257    -0.71800
V233        V  0.54705379  0.67390355  0.04139858     1.35200
V234        V  0.58160885  0.69355993  0.03167100     1.35200
C235        C  0.53828154  0.72532810  0.02676919     0.77600
C236        C  0.59123559  0.64292872  0.04625686     0.77600
C237        C  0.56860779  0.69808647  0.08409853     0.77500
C238        C  0.56079616  0.66590442  0.99019104     0.77500
O239        O  0.68604103  0.50107812  0.02135245    -0.71700
O240        O  0.62309786  0.48903401  0.06004449    -0.71900
O241        O  0.64505588  0.53072482  0.03720228    -0.71700
O242        O  0.66336769  0.45916333  0.04379798    -0.71700
O243        O  0.68756102  0.46859287  0.07759202    -0.71700
O244        O  0.66160015  0.53853919  0.07573944    -0.71700
O245        O  0.64517496  0.49338976  0.09624046    -0.71700
O246        O  0.70497296  0.51376131  0.05728276    -0.71800
V247        V  0.65482226  0.49517975  0.04117675     1.35200
V248        V  0.67456293  0.50348698  0.07597841     1.35200
C249        C  0.70634857  0.50967711  0.03286600     0.77600
C250        C  0.62364545  0.48881100  0.08488974     0.77600
C251        C  0.64856727  0.54631573  0.05611769     0.77500
C252        C  0.67873363  0.45165934  0.06170132     0.77500
O253        O  0.48613457  0.69870461  0.53456532    -0.71700
O254        O  0.44769630  0.63743631  0.55489193    -0.71900
O255        O  0.46964659  0.65420187  0.51044451    -0.71700
O256        O  0.46502188  0.68033633  0.57899253    -0.71700
O257        O  0.42829236  0.70011100  0.56986633    -0.71700
O258        O  0.43312554  0.67357599  0.49973917    -0.71700
O259        O  0.41144573  0.65734645  0.54472889    -0.71700
O260        O  0.44937347  0.71784449  0.52486751    -0.71800
V261        V  0.46649075  0.66816593  0.54437348     1.35200
V262        V  0.43134505  0.68697531  0.53485750     1.35200
C263        C  0.47402749  0.71922434  0.52711035     0.77600
C264        C  0.42277752  0.63720248  0.55362672     0.77600
C265        C  0.45170659  0.65797856  0.49390113     0.77500
C266        C  0.44553630  0.69353493  0.58657047     0.77500
O267        O  0.48856120  0.53962830  0.33406980    -0.71700
O268        O  0.46979098  0.57552718  0.39736008    -0.71900
O269        O  0.44441761  0.56016310  0.35426298    -0.71700
O270        O  0.51416795  0.55413586  0.37848053    -0.71700
O271        O  0.52367176  0.59231612  0.36218027    -0.71700
O272        O  0.45386004  0.59664339  0.33462921    -0.71700
O273        O  0.47786274  0.61262459  0.37828685    -0.71700
O274        O  0.49954023  0.57686913  0.31689560    -0.71800
V275        V  0.47956595  0.55801966  0.36563147     1.35200
V276        V  0.48871200  0.59381834  0.34823620     1.35200
C277        C  0.49631145  0.55245260  0.31421517     0.77600
C278        C  0.46991348  0.60042531  0.39820947     0.77600
C279        C  0.43692572  0.57955050  0.34095022     0.77500
C280        C  0.53033153  0.57262066  0.37581787     0.77500
O281        O  0.68383358  0.54078757  0.50476650    -0.71700
O282        O  0.62265953  0.55803472  0.46446799    -0.71900
O283        O  0.63999361  0.51512681  0.48917835    -0.71700
O284        O  0.66530358  0.58378490  0.48083087    -0.71700
O285        O  0.68517372  0.57253189  0.44491995    -0.71700
O286        O  0.66037634  0.50230796  0.45396402    -0.71700
O287        O  0.64299061  0.54533940  0.42928650    -0.71700
O288        O  0.70384747  0.52931754  0.46901948    -0.71800
V289        V  0.65343417  0.54907272  0.48418773     1.35200
V290        V  0.67283109  0.53752369  0.45005050     1.35200
C291        C  0.70466374  0.53277939  0.49352795     0.77600
C292        C  0.62253914  0.55472459  0.43978922     0.77600
C293        C  0.64459865  0.49739192  0.47255253     0.77500
C294        C  0.67857523  0.59033592  0.46111370     0.77500
O295        O  0.52423413  0.33689281  0.49393817    -0.71700
O296        O  0.56259222  0.39996154  0.48279157    -0.71900
O297        O  0.54965341  0.35842547  0.45388519    -0.71700
O298        O  0.53628547  0.37953036  0.52287304    -0.71700
O299        O  0.57263370  0.36165934  0.53625474    -0.71700
O300        O  0.58496561  0.33784948  0.46585157    -0.71700
O301        O  0.59845912  0.37997165  0.49429187    -0.71700
O302        O  0.55980848  0.31794774  0.50772164    -0.71800
V303        V  0.54386670  0.36821491  0.48874206     1.35200
V304        V  0.57823833  0.34957900  0.50094304     1.35200
C305        C  0.53569962  0.31633881  0.50199020     0.77600
C306        C  0.58727201  0.40050738  0.48615914     0.77600
C307        C  0.56946670  0.34497195  0.44769477     0.77500
C308        C  0.55273889  0.37604250  0.54094404     0.77500
O309        O  0.52706099  0.50304508  0.69703143    -0.71700
O310        O  0.53603260  0.46408151  0.63359696    -0.71900
O311        O  0.49546147  0.48750356  0.65773912    -0.71700
O312        O  0.56761697  0.48048143  0.67185844    -0.71700
O313        O  0.55993846  0.44637906  0.69614519    -0.71700
O314        O  0.48799978  0.44922056  0.67485817    -0.71700
O315        O  0.53222036  0.42793436  0.65568226    -0.71700
O316        O  0.51587512  0.46706813  0.71665886    -0.71800
V317        V  0.53133917  0.48315246  0.66550049     1.35200
V318        V  0.52404229  0.44836915  0.68557030     1.35200
C319        C  0.52003124  0.49145146  0.71786146     0.77600
C320        C  0.53636050  0.43919172  0.63410641     0.77600
C321        C  0.47972901  0.46906246  0.66235670     0.77500
C322        C  0.57618384  0.46233509  0.68621050     0.77500
O323        O  0.32245505  0.50235427  0.54224049    -0.71700
O324        O  0.38318912  0.48431935  0.58239416    -0.71900
O325        O  0.34067331  0.45906132  0.56522181    -0.71700
O326        O  0.36616315  0.52788509  0.55885064    -0.71700
O327        O  0.34464711  0.53989570  0.59373712    -0.71700
O328        O  0.32125862  0.46907779  0.60172880    -0.71700
O329        O  0.36294440  0.49705453  0.61772935    -0.71700
O330        O  0.30171993  0.51190930  0.57816297    -0.71800
V331        V  0.35264482  0.49375903  0.56281835     1.35200
V332        V  0.33292874  0.50437515  0.59710806     1.35200
C333        C  0.30118867  0.50879995  0.55359272     0.77600
C334        C  0.38336196  0.48794050  0.60697739     0.77600
C335        C  0.32736601  0.45189439  0.58474095     0.77500
C336        C  0.36068076  0.54531680  0.57552183     0.77500
O337        O  0.51841719  0.83896558  0.53377744    -0.71700
O338        O  0.55782241  0.90097726  0.54983643    -0.71900
O339        O  0.53125294  0.88378205  0.50826911    -0.71700
O340        O  0.54407856  0.85729580  0.57564469    -0.71700
O341        O  0.57918222  0.83732421  0.56191472    -0.71700
O342        O  0.56730689  0.86608756  0.49374213    -0.71700
O343        O  0.59332985  0.88122209  0.53677894    -0.71700
O344        O  0.55398733  0.82089743  0.51875733    -0.71800
V345        V  0.53852935  0.86981365  0.54152931     1.35200
V346        V  0.57269912  0.85165696  0.52796075     1.35200
C347        C  0.52992211  0.81888108  0.52437616     0.77600
C348        C  0.58249151  0.90149416  0.54605287     0.77600
C349        C  0.54769154  0.88104702  0.49002477     0.77500
C350        C  0.56360011  0.84294438  0.58054192     0.77500
O351        O  0.52449036  0.00501186  0.33291084    -0.71700
O352        O  0.53241084  0.96573746  0.39579695    -0.71900
O353        O  0.56419189  0.98027994  0.35709748    -0.71700
O354        O  0.49256196  0.99096124  0.37260487    -0.71700
O355        O  0.48293293  0.95344208  0.35478726    -0.71700
O356        O  0.55440041  0.94643854  0.33302004    -0.71700
O357        O  0.52589523  0.92987768  0.37372572    -0.71700
O358        O  0.51159834  0.96977525  0.31281502    -0.71800
V359        V  0.52814440  0.98489656  0.36411042     1.35200
V360        V  0.51876072  0.95061107  0.34386014     1.35200
C361        C  0.51681796  0.99399399  0.31198215     0.77600
C362        C  0.53146933  0.94089801  0.39518062     0.77600
C363        C  0.57159986  0.96153579  0.34271791     0.77500
C364        C  0.47586099  0.97328384  0.36808894     0.77500
O365        O  0.49376311  0.19507067  0.48530597    -0.71700
O366        O  0.45215090  0.13504376  0.46766172    -0.71900
O367        O  0.46940360  0.17747754  0.44220360    -0.71700
O368        O  0.47731987  0.15140939  0.51046915    -0.71700
O369        O  0.44128676  0.17064161  0.52283888    -0.71700
O370        O  0.43478541  0.19936453  0.45399877    -0.71700
O371        O  0.41704310  0.15676916  0.47850587    -0.71700
O372        O  0.45833999  0.21477855  0.49851550    -0.71800
V373        V  0.47254887  0.16522333  0.47672349     1.35200
V374        V  0.43864165  0.18512485  0.48832950     1.35200
C375        C  0.48279372  0.21553635  0.49445620     0.77600
C376        C  0.42730672  0.13593632  0.46996478     0.77600
C377        C  0.45062873  0.19236730  0.43608113     0.77500
C378        C  0.45995526  0.15484567  0.52772906     0.77500
O379        O  0.32087258  0.00164436  0.49326277    -0.71700
O380        O  0.38082040  0.98367837  0.45169373    -0.71900
O381        O  0.36513228  0.02648899  0.47724894    -0.71700
O382        O  0.33776378  0.95879573  0.46840738    -0.71700
O383        O  0.31727433  0.97069185  0.43314800    -0.71700
O384        O  0.34471241  0.04011480  0.44245887    -0.71700
O385        O  0.36010083  0.99727636  0.41700380    -0.71700
O386        O  0.30053494  0.01405900  0.45806312    -0.71800
V387        V  0.35064538  0.99301250  0.47203074     1.35200
V388        V  0.33090181  0.00536151  0.43841086     1.35200
C389        C  0.29993517  0.00972312  0.48239497     0.77600
C390        C  0.38066942  0.98809371  0.42725592     0.77600
C391        C  0.36139657  0.04420515  0.46049862     0.77500
C392        C  0.32323280  0.95278480  0.44940051     0.77500
O393        O  0.48586734  0.03480559  0.68771122    -0.71700
O394        O  0.47101091  0.07136939  0.62427765    -0.71900
O395        O  0.51379893  0.04928497  0.64514633    -0.71700
O396        O  0.44305665  0.05643653  0.66598315    -0.71700
O397        O  0.45282678  0.09181175  0.68757692    -0.71700
O398        O  0.52263459  0.08786452  0.66105984    -0.71700
O399        O  0.47725830  0.10838512  0.64450626    -0.71700
O400        O  0.49800760  0.07147788  0.70552256    -0.71800
V401        V  0.47868210  0.05361503  0.65619504     1.35200
V402        V  0.48762347  0.08911923  0.67443646     1.35200
C403        C  0.49410997  0.04709282  0.70772127     0.77600
C404        C  0.47106775  0.09623514  0.62385183     0.77600
C405        C  0.52977785  0.06795830  0.64794438     0.77500
C406        C  0.43575348  0.07532003  0.68026332     0.77500
O407        O  0.68457506  0.03907890  0.52172177    -0.71700
O408        O  0.62410146  0.05806435  0.56244623    -0.71900
O409        O  0.66759418  0.08263468  0.54613169    -0.71700
O410        O  0.63974491  0.01462653  0.53759944    -0.71700
O411        O  0.66035716  0.00124929  0.57237976    -0.71700
O412        O  0.68701474  0.07065196  0.58195557    -0.71700
O413        O  0.64428397  0.04424971  0.59733291    -0.71700
O414        O  0.70442410  0.02726591  0.55738336    -0.71800
V415        V  0.65450471  0.04825091  0.54254290     1.35200
V416        V  0.67376242  0.03605365  0.57647836     1.35200
C417        C  0.70529399  0.03081881  0.53291635     0.77600
C418        C  0.62391334  0.05366776  0.58690012     0.77600
C419        C  0.68120977  0.08869709  0.56584499     0.77500
C420        C  0.64387769  0.99684382  0.55426761     0.77500
O421        O  0.49342339  0.84632142  0.03318400    -0.71700
O422        O  0.44969125  0.90474511  0.05041549    -0.71900
O423        O  0.46689021  0.86228564  0.07527352    -0.71700
O424        O  0.47715136  0.89003059  0.00795415    -0.71700
O425        O  0.44369733  0.86844741  0.99293470    -0.71700
O426        O  0.43217143  0.84152784  0.06206627    -0.71700
O427        O  0.41599679  0.88358578  0.03503085    -0.71700
O428        O  0.45904392  0.82516077  0.01985144    -0.71800
V429        V  0.47117093  0.87541979  0.04125973     1.35200
V430        V  0.43842556  0.85501830  0.02763917     1.35200
C431        C  0.48333573  0.82518379  0.02479673     0.77600
C432        C  0.42523249  0.90377861  0.04588355     0.77600
C433        C  0.44767916  0.84774090  0.08055794     0.77500
C434        C  0.46208663  0.88477775  0.98904619     0.77500
O435        O  0.32764787  0.04111430  0.03044173    -0.71700
O436        O  0.39115998  0.05443226  0.06844925    -0.71900
O437        O  0.36897710  0.01216187  0.04590127    -0.71700
O438        O  0.35059995  0.08330402  0.05183416    -0.71700
O439        O  0.32768239  0.07496978  0.08673576    -0.71700
O440        O  0.35201221  0.00411053  0.08415569    -0.71700
O441        O  0.36968720  0.04905472  0.10470096    -0.71700
O442        O  0.30907356  0.02997501  0.06695455    -0.71800
V443        V  0.35923242  0.04751543  0.04980104     1.35200
V444        V  0.33993616  0.03961911  0.08491424     1.35200
C445        C  0.30727114  0.03347561  0.04257697     0.77600
C446        C  0.39089688  0.05473127  0.09337071     0.77600
C447        C  0.36456309  0.99622540  0.06418031     0.77500
C448        C  0.33583395  0.09135807  0.06995498     0.77500
O449        O  0.48956808  0.00400615  0.82784031    -0.71700
O450        O  0.47923684  0.96780386  0.89236296    -0.71900
O451        O  0.52025214  0.98982139  0.86837833    -0.71700
O452        O  0.44843747  0.98260137  0.85246433    -0.71700
O453        O  0.45698512  0.94739674  0.82998500    -0.71700
O454        O  0.52817440  0.95093852  0.85257850    -0.71700
O455        O  0.48378979  0.93067981  0.87181839    -0.71700
O456        O  0.50114460  0.96734134  0.80953645    -0.71800
V457        V  0.48458392  0.98540018  0.85985357     1.35200
V458        V  0.49246911  0.94981632  0.84122284     1.35200
C459        C  0.49694117  0.99171292  0.80746587     0.77600
C460        C  0.47927512  0.94293629  0.89287995     0.77600
C461        C  0.53607532  0.97111001  0.86474254     0.77500
C462        C  0.44038851  0.96402927  0.83824770     0.77500
O463        O  0.52898648  0.03951014  0.19171527    -0.71700
O464        O  0.54784495  0.08284053  0.13370139    -0.71900
O465        O  0.57211495  0.06534389  0.17694991    -0.71700
O466        O  0.50491271  0.05658148  0.14728208    -0.71700
O467        O  0.48988983  0.08951658  0.16998262    -0.71700
O468        O  0.55920914  0.10105545  0.19638525    -0.71700
O469        O  0.53163818  0.11657593  0.15427850    -0.71700
O470        O  0.51708272  0.07438159  0.21309635    -0.71800
V471        V  0.53811412  0.06164874  0.16288846     1.35200
V472        V  0.52468153  0.09465622  0.18314652     1.35200
C473        C  0.52089685  0.04989962  0.21287100     0.77600
C474        C  0.54201766  0.10703079  0.13394359     0.77600
C475        C  0.57748727  0.08492159  0.19106894     0.77500
C476        C  0.48628582  0.07203193  0.15264974     0.77500
O477        O  0.52171968  0.20354088  0.99430011    -0.71700
O478        O  0.55696272  0.13857177  0.98083329    -0.71900
O479        O  0.53606558  0.16180973  0.02326755    -0.71700
O480        O  0.54178513  0.17967396  0.95182526    -0.71700
O481        O  0.57792438  0.20066917  0.95989443    -0.71700
O482        O  0.57500350  0.17763355  0.03070276    -0.71700
O483        O  0.59430945  0.15833850  0.98596895    -0.71700
O484        O  0.55905728  0.22114266  0.00458915    -0.71800
V485        V  0.53978655  0.17129654  0.98776572     1.35200
V486        V  0.57580509  0.18918412  0.99522232     1.35200
C487        C  0.53455590  0.22361406  0.00154102     0.77600
C488        C  0.58188372  0.13760051  0.98065883     0.77600
C489        C  0.55503020  0.16529708  0.03876252     0.77500
C490        C  0.56069813  0.19327964  0.94357105     0.77500
O491        O  0.68478717  0.00156492  0.99594313    -0.71700
O492        O  0.62691931  0.98123813  0.95238274    -0.71900
O493        O  0.67079216  0.95832634  0.96981401    -0.71700
O494        O  0.63940368  0.02452606  0.97929360    -0.71700
O495        O  0.66122425  0.04016740  0.94628229    -0.71700
O496        O  0.69020200  0.97165397  0.93443345    -0.71700
O497        O  0.64727282  0.99784643  0.91887426    -0.71700
O498        O  0.70546423  0.01442746  0.96112963    -0.71800
V499        V  0.65591562  0.99182359  0.97378586     1.35200
V500        V  0.67573536  0.00582646  0.94091838     1.35200
C501        C  0.70566865  0.01027300  0.98548459     0.77600
C502        C  0.62741769  0.98644404  0.92807919     0.77600
C503        C  0.68513017  0.95322479  0.95035148     0.77500
C504        C  0.64410062  0.04341378  0.96411490     0.77500
O505        O  0.99125910  0.20410389  0.03613870    -0.71700
O506        O  0.95517080  0.14010072  0.05006006    -0.71900
O507        O  0.97407647  0.16329706  0.00738906    -0.71700
O508        O  0.97313099  0.17992909  0.07918419    -0.71700
O509        O  0.93867522  0.20447893  0.07305729    -0.71700
O510        O  0.93410793  0.17790614  0.00324467    -0.71700
O511        O  0.91833206  0.16184734  0.05046454    -0.71700
O512        O  0.95390394  0.22195852  0.02598254    -0.71800
V513        V  0.97283153  0.17227760  0.04309115     1.35200
V514        V  0.93694711  0.19133158  0.03819679     1.35200
C515        C  0.97848425  0.22409353  0.02850019     0.77600
C516        C  0.93044020  0.14043182  0.05302413     0.77600
C517        C  0.95367669  0.16582879  0.99363924     0.77500
C518        C  0.95602687  0.19530818  0.08833381     0.77500
O519        O  0.82637846  0.00194524  0.02743386    -0.71700
O520        O  0.88966037  0.98831019  0.06493305    -0.71900
O521        O  0.84757058  0.96025408  0.05107523    -0.71700
O522        O  0.86934497  0.02973985  0.04069164    -0.71700
O523        O  0.85296917  0.04143322  0.07811827    -0.71700
O524        O  0.82623440  0.97184470  0.08604815    -0.71700
O525        O  0.86945744  0.99745604  0.10132996    -0.71700
O526        O  0.80820906  0.01588538  0.06332814    -0.71800
V527        V  0.85776817  0.99536497  0.04667868     1.35200
V528        V  0.83942905  0.00654792  0.08147463     1.35200
C529        C  0.80629947  0.01097523  0.03910589     0.77600
C530        C  0.89017074  0.99035257  0.08968951     0.77600
C531        C  0.83329818  0.95394204  0.07017947     0.77500
C532        C  0.86695093  0.04694974  0.05827211     0.77500
O533        O  0.02630964  0.00533633  0.19236277    -0.71700
O534        O  0.04553580  0.96294080  0.13306857    -0.71900
O535        O  0.00241843  0.98952188  0.14747552    -0.71700
O536        O  0.06921546  0.97979679  0.17659746    -0.71700
O537        O  0.05647174  0.94439936  0.19625407    -0.71700
O538        O  0.98744149  0.95554746  0.16821483    -0.71700
O539        O  0.03011983  0.92879263  0.15326636    -0.71700
O540        O  0.01339458  0.97021938  0.21236576    -0.71800
V541        V  0.03545462  0.98377948  0.16280179     1.35200
V542        V  0.02204241  0.95045263  0.18221449     1.35200
C543        C  0.01785880  0.99451992  0.21313779     0.77600
C544        C  0.04088653  0.93848480  0.13328874     0.77600
C545        C  0.98377595  0.97396003  0.15189530     0.77500
C546        C  0.07466649  0.96057444  0.19096169     0.77500
O547        O  0.02844892  0.83554956  0.99491895    -0.71700
O548        O  0.06355876  0.90070258  0.98489948    -0.71900
O549        O  0.05076312  0.85998670  0.95434506    -0.71700
O550        O  0.04047077  0.87707612  0.02531329    -0.71700
O551        O  0.07927939  0.86213717  0.03497425    -0.71700
O552        O  0.08633328  0.83855432  0.96396157    -0.71700
O553        O  0.10098070  0.88100371  0.99108001    -0.71700
O554        O  0.06518225  0.81806682  0.00764489    -0.71800
V555        V  0.04648809  0.86789362  0.99010256     1.35200
V556        V  0.08221495  0.85014852  0.99937626     1.35200
C557        C  0.04099599  0.81549038  0.00266777     0.77600
C558        C  0.08842006  0.90165240  0.98572122     0.77600
C559        C  0.07005742  0.84637553  0.94682275     0.77500
C560        C  0.05856066  0.87423312  0.04191435     0.77500
O561        O  0.18708230  0.04391576  0.00268588    -0.71700
O562        O  0.12215934  0.05899704  0.96853279    -0.71900
O563        O  0.14281123  0.01697948  0.99206086    -0.71700
O564        O  0.16548936  0.08609058  0.97976180    -0.71700
O565        O  0.18387317  0.07387458  0.94338331    -0.71700
O566        O  0.15783610  0.00457115  0.95422562    -0.71700
O567        O  0.14006830  0.04835674  0.93131294    -0.71700
O568        O  0.20315606  0.03012784  0.96575054    -0.71800
V569        V  0.15481837  0.05116356  0.98512314     1.35200
V570        V  0.17103278  0.03934016  0.94945625     1.35200
C571        C  0.20642631  0.03486004  0.98981271     0.77600
C572        C  0.12048451  0.05691590  0.94383106     0.77600
C573        C  0.14473765  0.99941415  0.97473436     0.77500
C574        C  0.17789348  0.09211519  0.95925513     0.77500
O575        O  0.98486122  0.03650462  0.84246793    -0.71700
O576        O  0.96404334  0.07726963  0.90243959    -0.71900
O577        O  0.94084944  0.05954779  0.85899317    -0.71700
O578        O  0.00815743  0.05302957  0.88742776    -0.71700
O579        O  0.02092757  0.08851360  0.86780762    -0.71700
O580        O  0.95173913  0.09537804  0.83896242    -0.71700
O581        O  0.97656560  0.11230987  0.88183965    -0.71700
O582        O  0.99660186  0.07236019  0.82304499    -0.71800
V583        V  0.97485464  0.05719466  0.87236095     1.35200
V584        V  0.98634195  0.09135480  0.85315791     1.35200
C585        C  0.99327807  0.04790205  0.82197266     0.77600
C586        C  0.96699234  0.10200937  0.90208145     0.77600
C587        C  0.93425370  0.07874051  0.84505607     0.77500
C588        C  0.02544053  0.07028848  0.88414008     0.77500
O589        O  0.02781811  0.04084843  0.33152227    -0.71700
O590        O  0.04549098  0.07833701  0.39380897    -0.71900
O591        O  0.00166616  0.05644936  0.37500688    -0.71700
O592        O  0.07170052  0.06210288  0.35142738    -0.71700
O593        O  0.06224291  0.09814827  0.33099063    -0.71700
O594        O  0.99202053  0.09406095  0.35740810    -0.71700
O595        O  0.03724860  0.11498125  0.37381827    -0.71700
O596        O  0.01697612  0.07750424  0.31296340    -0.71800
V597        V  0.03639065  0.06009465  0.36248590     1.35200
V598        V  0.02717932  0.09538876  0.34402785     1.35200
C599        C  0.01994535  0.05294375  0.31127174     0.77600
C600        C  0.04478759  0.10320300  0.39417353     0.77600
C601        C  0.98533677  0.07472675  0.37148043     0.77500
C602        C  0.07925122  0.08122564  0.33778099     0.77500
O603        O  0.82698858  0.04141080  0.49360068    -0.71700
O604        O  0.88918160  0.06166784  0.45636363    -0.71900
O605        O  0.84468254  0.08539475  0.47131321    -0.71700
O606        O  0.87256588  0.01796875  0.47962941    -0.71700
O607        O  0.85454927  0.00490737  0.44330875    -0.71700
O608        O  0.82707573  0.07440677  0.43421006    -0.71700
O609        O  0.87088668  0.04870664  0.42019481    -0.71700
O610        O  0.80904822  0.03009132  0.45672977    -0.71800
V611        V  0.85788188  0.05127457  0.47457055     1.35200
V612        V  0.84055595  0.03966755  0.43939428     1.35200
C613        C  0.80703570  0.03299292  0.48124328     0.77600
C614        C  0.89058645  0.05829212  0.43172011     0.77600
C615        C  0.83215478  0.09200721  0.45112156     0.77500
C616        C  0.87002602  0.00054406  0.46232617     0.77500
O617        O  0.99632694  0.84669473  0.49640881    -0.71700
O618        O  0.95748777  0.90773886  0.47740649    -0.71900
O619        O  0.98133899  0.89168771  0.52098087    -0.71700
O620        O  0.97282777  0.86416191  0.45285600    -0.71700
O621        O  0.93674837  0.84497979  0.46459776    -0.71700
O622        O  0.94524718  0.87287914  0.53360977    -0.71700
O623        O  0.92144256  0.88833921  0.48928721    -0.71700
O624        O  0.96017110  0.82797833  0.50866585    -0.71800
V625        V  0.97638644  0.87708015  0.48730172     1.35200
V626        V  0.94169619  0.85879824  0.49897766     1.35200
C627        C  0.98464842  0.82643351  0.50477921     0.77600
C628        C  0.93270186  0.90808730  0.47963286     0.77600
C629        C  0.96417609  0.88828580  0.53847509     0.77500
C630        C  0.95287293  0.85091980  0.44664410     0.77500
O631        O  0.02514964  0.20394464  0.53017701    -0.71700
O632        O  0.06226872  0.14221374  0.55078657    -0.71900
O633        O  0.04624469  0.18599430  0.57454397    -0.71700
O634        O  0.04064493  0.15893628  0.50630985    -0.71700
O635        O  0.07747895  0.17731846  0.49524281    -0.71700
O636        O  0.08330665  0.20440515  0.56484963    -0.71700
O637        O  0.09901926  0.16074115  0.54019886    -0.71700
O638        O  0.06220921  0.22224273  0.52008017    -0.71800
V639        V  0.04424461  0.17322473  0.54009991     1.35200
V640        V  0.07973349  0.19094399  0.53014209     1.35200
C641        C  0.03757172  0.22412307  0.52270586     0.77600
C642        C  0.08710280  0.14102539  0.54923923     0.77600
C643        C  0.06590677  0.19901981  0.58179391     0.77500
C644        C  0.05862699  0.16209373  0.48966178     0.77500
O645        O  0.18181640  0.00264179  0.53286231    -0.71700
O646        O  0.12222540  0.98516995  0.57516220    -0.71900
O647        O  0.13906611  0.02869467  0.55139831    -0.71700
O648        O  0.16355627  0.95920408  0.55591518    -0.71700
O649        O  0.18458111  0.96855220  0.59173634    -0.71700
O650        O  0.16209767  0.03989953  0.58552492    -0.71700
O651        O  0.14412743  0.99711520  0.60973063    -0.71700
O652        O  0.20366679  0.01147752  0.56821431    -0.71800
V653        V  0.15216085  0.99425908  0.55442715     1.35200
V654        V  0.17328349  0.00411391  0.58806509     1.35200
C655        C  0.20341096  0.00901100  0.54362763     0.77600
C656        C  0.12322356  0.98836157  0.59981330     0.77600
C657        C  0.14556802  0.04587858  0.56793668     0.77500
C658        C  0.17745515  0.95166369  0.57487204     0.77500
O659        O  0.98560348  0.01052937  0.69991957    -0.71700
O660        O  0.97437468  0.97571019  0.63411202    -0.71900
O661        O  0.94365454  0.99192267  0.67367036    -0.71700
O662        O  0.01605842  0.99530963  0.65930557    -0.71700
O663        O  0.02143707  0.95569657  0.67409677    -0.71700
O664        O  0.94962304  0.95612613  0.69598188    -0.71700
O665        O  0.97629502  0.93836722  0.65431014    -0.71700
O666        O  0.99479224  0.97272404  0.71723228    -0.71800
V667        V  0.98006684  0.99274749  0.66717793     1.35200
V668        V  0.98551909  0.95650042  0.68519367     1.35200
C669        C  0.99186089  0.99716274  0.71996107     0.77600
C670        C  0.97318322  0.95082261  0.63322257     0.77600
C671        C  0.93420704  0.97355807  0.68713033     0.77500
C672        C  0.03064575  0.97557127  0.66240932     0.77500
O673        O  0.74127262  0.59662345  0.77321176    -0.71700
O674        O  0.72312019  0.65523149  0.81675195    -0.71900
O675        O  0.76636429  0.63996143  0.79148821    -0.71700
O676        O  0.69798040  0.61322943  0.79809597    -0.71700
O677        O  0.70935252  0.59214979  0.83318578    -0.71700
O678        O  0.77937010  0.61760094  0.82531873    -0.71700
O679        O  0.73669588  0.63355628  0.85081300    -0.71700
O680        O  0.75248726  0.57486472  0.80788572    -0.71800
V681        V  0.73255554  0.62573043  0.79545799     1.35200
V682        V  0.74428792  0.60478792  0.82853497     1.35200
C683        C  0.74903631  0.57524488  0.78334381     0.77600
C684        C  0.72729861  0.65434531  0.84123953     0.77600
C685        C  0.78392760  0.63489810  0.80814080     0.77500
C686        C  0.69155364  0.59904303  0.81720462     0.77500
O687        O  0.93716964  0.76279666  0.78395021    -0.71700
O688        O  0.87722149  0.72204626  0.80203732    -0.71900
O689        O  0.92097739  0.73706662  0.82668990    -0.71700
O690        O  0.89239316  0.74822663  0.75945879    -0.71700
O691        O  0.91117288  0.71273903  0.74512708    -0.71700
O692        O  0.94131308  0.70235768  0.81266201    -0.71700
O693        O  0.89750081  0.68699721  0.78858297    -0.71700
O694        O  0.95617596  0.72769012  0.76904804    -0.71800
V695        V  0.90739527  0.74193525  0.79267528     1.35200
V696        V  0.92626100  0.70821119  0.77903494     1.35200
C697        C  0.95725340  0.75195852  0.77393705     0.77600
C698        C  0.87735369  0.69741328  0.79856538     0.77600
C699        C  0.93535954  0.71747974  0.83150443     0.77500
C700        C  0.89577269  0.73188944  0.74112872     0.77500
O701        O  0.58260914  0.78147085  0.73922458    -0.71700
O702        O  0.64453598  0.81939999  0.72063162    -0.71900
O703        O  0.62698554  0.79684623  0.76431282    -0.71700
O704        O  0.60166163  0.80339008  0.69545143    -0.71700
O705        O  0.58068976  0.83910551  0.70600940    -0.71700
O706        O  0.60929341  0.83415872  0.77511731    -0.71700
O707        O  0.62422616  0.85579736  0.72975407    -0.71700
O708        O  0.56440395  0.81807191  0.75132291    -0.71800
V709        V  0.61345893  0.80088849  0.73023956     1.35200
V710        V  0.59491360  0.83600154  0.74047816     1.35200
C711        C  0.56252991  0.79367355  0.74766752     0.77600
C712        C  0.64462823  0.84426011  0.72168726     0.77600
C713        C  0.62408648  0.81496504  0.78093122     0.77500
C714        C  0.58766397  0.82259671  0.68871894     0.77500
O715        O  0.74615132  0.79482367  0.94181700    -0.71700
O716        O  0.71093994  0.80504412  0.87636239    -0.71900
O717        O  0.72452055  0.83588129  0.91651349    -0.71700
O718        O  0.73326607  0.76411809  0.90050337    -0.71700
O719        O  0.69403983  0.75592878  0.91509737    -0.71700
O720        O  0.68924023  0.82701046  0.93879149    -0.71700
O721        O  0.67357278  0.80041401  0.89635572    -0.71700
O722        O  0.70923392  0.78254259  0.95898817    -0.71800
V723        V  0.72810473  0.79975360  0.90924180     1.35200
V724        V  0.69226597  0.79152822  0.92709580     1.35200
C725        C  0.73348910  0.78699704  0.96177740     0.77600
C726        C  0.68602250  0.80499025  0.87548788     0.77600
C727        C  0.70546550  0.84376057  0.93021722     0.77500
C728        C  0.71457311  0.74816934  0.90325972     0.77500
O729        O  0.77462676  0.75318921  0.58017857    -0.71700
O730        O  0.81001322  0.74481629  0.64551691    -0.71900
O731        O  0.78821159  0.78511745  0.62006208    -0.71700
O732        O  0.79595235  0.71260189  0.60634041    -0.71700
O733        O  0.83165526  0.72034845  0.58442794    -0.71700
O734        O  0.82710321  0.79235926  0.60404213    -0.71700
O735        O  0.84736834  0.74904157  0.62532021    -0.71700
O736        O  0.81166835  0.76350058  0.56184695    -0.71800
V737        V  0.79284256  0.74909637  0.61257780     1.35200
V738        V  0.82868582  0.75625955  0.59416063     1.35200
C739        C  0.78719312  0.75988714  0.55981131     0.77600
C740        C  0.83489176  0.74508628  0.64629896     0.77600
C741        C  0.80697572  0.80072804  0.61607769     0.77500
C742        C  0.81499768  0.70403008  0.59294647     0.77500
O743        O  0.77431552  0.95119450  0.74344748    -0.71700
O744        O  0.79643463  0.89482714  0.69901515    -0.71900
O745        O  0.81867644  0.93812041  0.71899255    -0.71700
O746        O  0.75231412  0.90679221  0.72410335    -0.71700
O747        O  0.73831210  0.92862728  0.69034215    -0.71700
O748        O  0.80646274  0.95973946  0.68449282    -0.71700
O749        O  0.78251424  0.91667903  0.66520776    -0.71700
O750        O  0.76173890  0.97274161  0.70911302    -0.71800
V751        V  0.78509055  0.92323179  0.72077451     1.35200
V752        V  0.77246260  0.94414686  0.68800210     1.35200
C753        C  0.76529124  0.97220201  0.73357138     0.77600
C754        C  0.79233072  0.89598968  0.67453540     0.77600
C755        C  0.82421829  0.95400405  0.70101287     0.77500
C756        C  0.73452125  0.91106617  0.70749229     0.77500
O757        O  0.24057230  0.79114420  0.58454407    -0.71700
O758        O  0.20149904  0.80991239  0.64589229    -0.71900
O759        O  0.22599902  0.76657543  0.62929234    -0.71700
O760        O  0.21676933  0.83438139  0.60234198    -0.71700
O761        O  0.18015728  0.82285791  0.58399191    -0.71700
O762        O  0.19058905  0.75307062  0.60991754    -0.71700
O763        O  0.16593869  0.79605299  0.62680918    -0.71700
O764        O  0.20439258  0.77951484  0.56546392    -0.71800
V765        V  0.22057379  0.80012077  0.61504349     1.35200
V766        V  0.18603141  0.78803209  0.59674417     1.35200
C767        C  0.22890822  0.78314731  0.56404908     0.77600
C768        C  0.17697386  0.80573786  0.64670601     0.77600
C769        C  0.20942159  0.74859902  0.62562608     0.77500
C770        C  0.19658610  0.84072826  0.58957145     0.77500
O771        O  0.23707388  0.59061936  0.74971313    -0.71700
O772        O  0.22225036  0.65418089  0.71301994    -0.71900
O773        O  0.19509006  0.61110980  0.72577135    -0.71700
O774        O  0.26400610  0.63432470  0.73763237    -0.71700
O775        O  0.27666514  0.61802389  0.70036780    -0.71700
O776        O  0.20747271  0.59125644  0.69020971    -0.71700
O777        O  0.23276286  0.63492371  0.67641514    -0.71700
O778        O  0.25113575  0.57325981  0.71343276    -0.71800
V779        V  0.22990328  0.62214910  0.73086447     1.35200
V780        V  0.24188420  0.60463830  0.69584708     1.35200
C781        C  0.24615117  0.57084624  0.73755287     0.77600
C782        C  0.22469147  0.65511898  0.68830308     0.77600
C783        C  0.18927692  0.59736220  0.70605626     0.77500
C784        C  0.28180758  0.63144980  0.72068608     0.77500
O785        O  0.27317278  0.75372391  0.94103763    -0.71700
O786        O  0.31643212  0.73316557  0.88312908    -0.71900
O787        O  0.29766280  0.70978529  0.92595275    -0.71700
O788        O  0.29151496  0.77718057  0.89681498    -0.71700
O789        O  0.32455098  0.79081474  0.92015791    -0.71700
O790        O  0.33390305  0.72112981  0.94529286    -0.71700
O791        O  0.35045366  0.74841822  0.90384331    -0.71700
O792        O  0.30839071  0.76370456  0.96279279    -0.71800
V793        V  0.29523978  0.74384471  0.91220422     1.35200
V794        V  0.32856828  0.75586113  0.93272854     1.35200
C795        C  0.28376917  0.76085875  0.96242365     0.77600
C796        C  0.34091453  0.73770002  0.88370836     0.77600
C797        C  0.31731293  0.70352142  0.93956247     0.77500
C798        C  0.30749912  0.79511593  0.90261542     0.77500
O799        O  0.44240616  0.75102800  0.74554210    -0.71700
O800        O  0.37778063  0.71478989  0.73639786    -0.71900
O801        O  0.40166838  0.73835970  0.77658925    -0.71700
O802        O  0.41777068  0.72808008  0.70529654    -0.71700
O803        O  0.44038926  0.69334961  0.71502296    -0.71700
O804        O  0.41709819  0.69962980  0.78574291    -0.71700
O805        O  0.39838729  0.67779636  0.74193151    -0.71700
O806        O  0.46055768  0.71487357  0.75866918    -0.71800
V807        V  0.41033446  0.73243520  0.74119199     1.35200
V808        V  0.42889040  0.69714198  0.75029398     1.35200
C809        C  0.46271363  0.73900396  0.75351134     0.77600
C810        C  0.37737979  0.68995568  0.73696832     0.77600
C811        C  0.40490473  0.72012461  0.79289954     0.77500
C812        C  0.43180519  0.70906580  0.69782031     0.77500
O813        O  0.07770452  0.79134246  0.78416972    -0.71700
O814        O  0.14111510  0.82745948  0.80057309    -0.71900
O815        O  0.09886102  0.81243105  0.82748655    -0.71700
O816        O  0.12079392  0.80548154  0.75746085    -0.71700
O817        O  0.10431573  0.84366326  0.74798048    -0.71700
O818        O  0.07844159  0.84861916  0.81823631    -0.71700
O819        O  0.12136370  0.86447728  0.79301585    -0.71700
O820        O  0.05988122  0.82839499  0.77305014    -0.71800
V821        V  0.10919417  0.80986128  0.79218288     1.35200
V822        V  0.09122774  0.84552255  0.78315487     1.35200
C823        C  0.05785997  0.80388826  0.77586697     0.77600
C824        C  0.14172581  0.85232523  0.80006939     0.77600
C825        C  0.08539617  0.83175818  0.83514128     0.77500
C826        C  0.11751782  0.82365213  0.74109574     0.77500
O827        O  0.27909431  0.95166240  0.77989943    -0.71700
O828        O  0.29808254  0.89086656  0.81899768    -0.71900
O829        O  0.25453660  0.90740804  0.79546374    -0.71700
O830        O  0.32273347  0.93402937  0.80274259    -0.71700
O831        O  0.31192340  0.95358345  0.83896844    -0.71700
O832        O  0.24224142  0.92696883  0.83132626    -0.71700
O833        O  0.28615437  0.91078628  0.85468445    -0.71700
O834        O  0.26781323  0.97108894  0.81604299    -0.71800
V835        V  0.28828124  0.92146911  0.79990929     1.35200
V836        V  0.27715351  0.94036048  0.83449060     1.35200
C837        C  0.27119606  0.97221975  0.79158559     0.77600
C838        C  0.29524470  0.89054696  0.84369688     0.77600
C839        C  0.23730147  0.91112196  0.81278735     0.77500
C840        C  0.32940695  0.94764309  0.82225044     0.77500
O841        O  0.07387617  0.75677520  0.28196856    -0.71700
O842        O  0.13823897  0.71889446  0.28937218    -0.71900
O843        O  0.11302668  0.74182040  0.24952195    -0.71700
O844        O  0.09982329  0.73432380  0.32188077    -0.71700
O845        O  0.07618557  0.69976200  0.31406712    -0.71700
O846        O  0.09616409  0.70338722  0.24205435    -0.71700
O847        O  0.11674806  0.68228903  0.28553474    -0.71700
O848        O  0.05432057  0.72050989  0.27113817    -0.71800
V849        V  0.10579298  0.73730986  0.28548760     1.35200
V850        V  0.08612303  0.70221678  0.27819730     1.35200
C851        C  0.05295178  0.74487815  0.27569121     0.77600
C852        C  0.13821269  0.69402800  0.28935787     0.77600
C853        C  0.10862610  0.72322325  0.23379281     0.77500
C854        C  0.08566937  0.71595449  0.33038750     0.77500
O855        O  0.27944132  0.59609200  0.27164396    -0.71700
O856        O  0.29443830  0.65569269  0.31524295    -0.71900
O857        O  0.32129568  0.61393750  0.29792421    -0.71700
O858        O  0.25268448  0.63906020  0.28800536    -0.71700
O859        O  0.23890495  0.61797766  0.32214527    -0.71700
O860        O  0.30912365  0.59210825  0.33217222    -0.71700
O861        O  0.28108616  0.63352780  0.34901641    -0.71700
O862        O  0.26640935  0.57509124  0.30611608    -0.71800
V863        V  0.28662605  0.62571644  0.29381457     1.35200
V864        V  0.27409250  0.60496920  0.32663385     1.35200
C865        C  0.27080881  0.57506074  0.28179981     0.77600
C866        C  0.28991379  0.65457503  0.33969177     0.77600
C867        C  0.32738319  0.59935200  0.31679918     0.77500
C868        C  0.23425648  0.63404733  0.30370610     0.77500
O869        O  0.23675094  0.75205848  0.08201863    -0.71700
O870        O  0.19378698  0.73533450  0.14121085    -0.71900
O871        O  0.21155717  0.70981770  0.09917548    -0.71700
O872        O  0.22007674  0.77762370  0.12532818    -0.71700
O873        O  0.18545463  0.79124316  0.10447085    -0.71700
O874        O  0.17665033  0.72143857  0.07769226    -0.71700
O875        O  0.15951571  0.74855499  0.11950001    -0.71700
O876        O  0.20195033  0.76459997  0.06097920    -0.71800
V877        V  0.21491743  0.74408470  0.11142108     1.35200
V878        V  0.18163596  0.75630758  0.09090213     1.35200
C879        C  0.22640009  0.76035645  0.06096812     0.77600
C880        C  0.16919067  0.73940220  0.14028954     0.77600
C881        C  0.19253884  0.70356765  0.08480067     0.77500
C882        C  0.20350726  0.79543845  0.12112467     0.77500
O883        O  0.26672524  0.79187972  0.44154515    -0.71700
O884        O  0.30266046  0.80294349  0.37662455    -0.71900
O885        O  0.28209551  0.76153026  0.40096026    -0.71700
O886        O  0.28656705  0.83377476  0.41622836    -0.71700
O887        O  0.32173452  0.82679360  0.43932744    -0.71700
O888        O  0.32154354  0.75546819  0.41610573    -0.71700
O889        O  0.33983006  0.80072197  0.39746348    -0.71700
O890        O  0.30396241  0.78147955  0.45946611    -0.71800
V891        V  0.28512839  0.79740530  0.40928980     1.35200
V892        V  0.32102171  0.79115975  0.42788557     1.35200
C893        C  0.27939705  0.78447699  0.46166074     0.77600
C894        C  0.32756365  0.80409547  0.37627287     0.77600
C895        C  0.30172561  0.74669017  0.40386338     0.77500
C896        C  0.30480435  0.84270881  0.43033967     0.77500
O897        O  0.42979102  0.77892452  0.23759055    -0.71700
O898        O  0.36967509  0.82089231  0.21957461    -0.71900
O899        O  0.41309785  0.80451090  0.19484506    -0.71700
O900        O  0.38503867  0.79442480  0.26223083    -0.71700
O901        O  0.40442250  0.82946033  0.27646768    -0.71700
O902        O  0.43367724  0.83927820  0.20811658    -0.71700
O903        O  0.39059799  0.85532579  0.23338828    -0.71700
O904        O  0.44901732  0.81405469  0.25168981    -0.71800
V905        V  0.39984867  0.80026191  0.22892810     1.35200
V906        V  0.41916848  0.83374040  0.24221288     1.35200
C907        C  0.45014596  0.78979285  0.24709857     0.77600
C908        C  0.37017274  0.84549589  0.22357913     0.77600
C909        C  0.42748272  0.82384617  0.18956726     0.77500
C910        C  0.38843444  0.81080592  0.28044325     0.77500
O911        O  0.23626666  0.94765584  0.24952206    -0.71700
O912        O  0.22023403  0.88679921  0.20891154    -0.71900
O913        O  0.26371954  0.90636297  0.23081502    -0.71700
O914        O  0.19274752  0.92677144  0.22824014    -0.71700
O915        O  0.20058211  0.95091696  0.19408835    -0.71700
O916        O  0.27107303  0.92513219  0.19329549    -0.71700
O917        O  0.22519672  0.90959278  0.17339919    -0.71700
O918        O  0.24657963  0.96806144  0.21376573    -0.71800
V919        V  0.22848664  0.91739592  0.22876436     1.35200
V920        V  0.23582758  0.93817798  0.19439725     1.35200
C921        C  0.24408042  0.96846981  0.23840001     0.77600
C922        C  0.21927734  0.88815892  0.18409394     0.77600
C923        C  0.27897835  0.91071810  0.21189705     0.77500
C924        C  0.18434365  0.94164505  0.21046291     0.77500
O925        O  0.57246328  0.24783001  0.78095835    -0.71700
O926        O  0.63495154  0.21266943  0.80248767    -0.71900
O927        O  0.61829100  0.23353134  0.75778095    -0.71700
O928        O  0.59040419  0.22771480  0.82556719    -0.71700
O929        O  0.57285718  0.19020324  0.81584579    -0.71700
O930        O  0.60114896  0.19616165  0.74653358    -0.71700
O931        O  0.61719272  0.17541480  0.79198515    -0.71700
O932        O  0.55533806  0.21028621  0.77057966    -0.71800
V933        V  0.60359489  0.22975656  0.79133517     1.35200
V934        V  0.58686042  0.19379493  0.78126709     1.35200
C935        C  0.55264984  0.23471711  0.77355830     0.77600
C936        C  0.63654936  0.18790104  0.80099380     0.77600
C937        C  0.61591435  0.21543209  0.74110484     0.77500
C938        C  0.57760670  0.20788605  0.83272843     0.77500
O939        O  0.73783206  0.45544789  0.74201745    -0.71700
O940        O  0.72208057  0.39076874  0.70765158    -0.71900
O941        O  0.76480252  0.41208185  0.72896487    -0.71700
O942        O  0.69468383  0.43355230  0.72146712    -0.71700
O943        O  0.70402954  0.45318364  0.68499260    -0.71700
O944        O  0.77418694  0.42683455  0.69014031    -0.71700
O945        O  0.72906027  0.40920970  0.66999494    -0.71700
O946        O  0.74927395  0.47215881  0.70464034    -0.71800
V947        V  0.73004288  0.42338336  0.72430029     1.35200
V948        V  0.73904818  0.44016302  0.68818101     1.35200
C949        C  0.74626846  0.47491439  0.72911967     0.77600
C950        C  0.72296988  0.38898273  0.68286023     0.77600
C951        C  0.78099222  0.41425585  0.71045869     0.77500
C952        C  0.68716491  0.44696533  0.70219475     0.77500
O953        O  0.74203329  0.24775221  0.58601182    -0.71700
O954        O  0.70460673  0.23054609  0.64844761    -0.71900
O955        O  0.71998594  0.20441915  0.60569484    -0.71700
O956        O  0.72721593  0.27392991  0.62994281    -0.71700
O957        O  0.69008971  0.28482887  0.61198324    -0.71700
O958        O  0.68382058  0.21474182  0.58558234    -0.71700
O959        O  0.66794893  0.24001387  0.62884354    -0.71700
O960        O  0.70533810  0.25923102  0.56770872    -0.71800
V961        V  0.72280322  0.23948925  0.61706711     1.35200
V962        V  0.68754766  0.24962253  0.59882936     1.35200
C963        C  0.72980833  0.25558308  0.56580583     0.77600
C964        C  0.67975034  0.23201698  0.64907456     0.77600
C965        C  0.70055992  0.19746889  0.59207363     0.77500
C966        C  0.70953838  0.29092952  0.62630819     0.77500
O967        O  0.77247192  0.08833099  0.78474127    -0.71700
O968        O  0.79048439  0.14895803  0.82511395    -0.71900
O969        O  0.81603214  0.10667732  0.80749706    -0.71700
O970        O  0.74716965  0.13183498  0.80156661    -0.71700
O971        O  0.73530103  0.11088186  0.83666798    -0.71700
O972        O  0.80613423  0.08689365  0.84375646    -0.71700
O973        O  0.77845766  0.12838580  0.86035103    -0.71700
O974        O  0.76270646  0.06786007  0.82065023    -0.71800
V975        V  0.78121315  0.11843731  0.80534871     1.35200
V976        V  0.77079774  0.09874029  0.83959695     1.35200
C977        C  0.76547226  0.06734065  0.79608780     0.77600
C978        C  0.78701859  0.14895152  0.84973836     0.77600
C979        C  0.82329587  0.09346033  0.82697588     0.77500
C980        C  0.72994797  0.12704760  0.81858325     0.77500
O981        O  0.93283253  0.28455150  0.74090856    -0.71700
O982        O  0.87092328  0.32478345  0.72593765    -0.71900
O983        O  0.91332951  0.30951130  0.69922314    -0.71700
O984        O  0.88904688  0.29887151  0.76785113    -0.71700
O985        O  0.90850510  0.33426855  0.78126984    -0.71700
O986        O  0.93349714  0.34489343  0.71134382    -0.71700
O987        O  0.89145680  0.35978167  0.73904282    -0.71700
O988        O  0.95203197  0.32019629  0.75384410    -0.71800
V989        V  0.90196921  0.30502441  0.73388161     1.35200
V990        V  0.92109238  0.33901559  0.74620388     1.35200
C991        C  0.95349962  0.29602915  0.74885891     0.77600
C992        C  0.87100107  0.34935236  0.72997943     0.77600
C993        C  0.92697948  0.32908925  0.69318436     0.77500
C994        C  0.89327798  0.31517667  0.78598243     0.77500
O995        O  0.77269426  0.28999599  0.94661764    -0.71700
O996        O  0.80902315  0.30081311  0.88234671    -0.71900
O997        O  0.78624713  0.25974918  0.90540799    -0.71700
O998        O  0.79500712  0.33111670  0.92292157    -0.71700
O999        O  0.83001898  0.32153596  0.94530991    -0.71700
O1000       O  0.82506583  0.25095170  0.92093350    -0.71700
O1001       O  0.84613614  0.29529455  0.90265302    -0.71700
O1002       O  0.80914488  0.27740093  0.96475182    -0.71800
V1003       V  0.79139208  0.29520062  0.91475906     1.35200
V1004       V  0.82686899  0.28635020  0.93316726     1.35200
C1005       C  0.78475609  0.28188522  0.96675804     0.77600
C1006       C  0.83390223  0.30036061  0.88172532     0.77600
C1007       C  0.80480025  0.24362942  0.90852820     0.77500
C1008       C  0.81378928  0.33856450  0.93723055     0.77500
O1009       O  0.27760425  0.09065917  0.74485963    -0.71700
O1010       O  0.29475872  0.15093217  0.70390762    -0.71900
O1011       O  0.25242475  0.13508588  0.73036803    -0.71700
O1012       O  0.31981526  0.10769937  0.71936854    -0.71700
O1013       O  0.30718314  0.08863085  0.68350314    -0.71700
O1014       O  0.23759430  0.11443547  0.69614750    -0.71700
O1015       O  0.27944460  0.13103590  0.66945290    -0.71700
O1016       O  0.26501413  0.07080731  0.70940070    -0.71800
V1017       V  0.28575445  0.12065256  0.72400855     1.35200
V1018       V  0.27248481  0.10151028  0.69035579     1.35200
C1019       C  0.26961428  0.06990133  0.73364227     0.77600
C1020       C  0.28985267  0.15105260  0.67953148     0.77600
C1021       C  0.23375325  0.13041811  0.71488481     0.77500
C1022       C  0.32549154  0.09428447  0.69942090     0.77500
O1023       O  0.07424047  0.25322853  0.74140024    -0.71700
O1024       O  0.13894391  0.21654876  0.73130061    -0.71900
O1025       O  0.09961848  0.23214091  0.70048516    -0.71700
O1026       O  0.11455094  0.23863273  0.77219300    -0.71700
O1027       O  0.09869619  0.19977464  0.77950406    -0.71700
O1028       O  0.07658155  0.19714389  0.70803886    -0.71700
O1029       O  0.11803869  0.17970655  0.73513214    -0.71700
O1030       O  0.05587814  0.21655359  0.75240174    -0.71800
V1031       V  0.10641995  0.23449334  0.73655717     1.35200
V1032       V  0.08753783  0.19901284  0.74371796     1.35200
C1033       C  0.05379672  0.24090179  0.74846552     0.77600
C1034       C  0.13927969  0.19166166  0.73096646     0.77600
C1035       C  0.08556373  0.21376910  0.69192294     0.77500
C1036       C  0.11090462  0.21982686  0.78770227     0.77500
O1037       O  0.27132498  0.29099740  0.58253926    -0.71700
O1038       O  0.30660907  0.30018286  0.64807943    -0.71900
O1039       O  0.29194154  0.33166648  0.60884456    -0.71700
O1040       O  0.28521269  0.25952205  0.62265011    -0.71700
O1041       O  0.32382963  0.25201878  0.60591546    -0.71700
O1042       O  0.32835114  0.32438558  0.58776576    -0.71700
O1043       O  0.34399350  0.29440064  0.62816798    -0.71700
O1044       O  0.30866883  0.28160747  0.56430462    -0.71800
V1045       V  0.28943694  0.29538467  0.61508658     1.35200
V1046       V  0.32543164  0.28823103  0.59676643     1.35200
C1047       C  0.28421466  0.28509639  0.56203524     0.77600
C1048       C  0.33146250  0.29876815  0.64903207     0.77600
C1049       C  0.31111841  0.34042749  0.59599047     0.77500
C1050       C  0.30387928  0.24384431  0.61823010     0.77500
O1051       O  0.43299415  0.27723165  0.78848134    -0.71700
O1052       O  0.37003737  0.31562388  0.80298736    -0.71900
O1053       O  0.38934544  0.29009604  0.76129047    -0.71700
O1054       O  0.41295783  0.30218884  0.83056872    -0.71700
O1055       O  0.43465625  0.33621146  0.81739011    -0.71700
O1056       O  0.40502073  0.32789183  0.74947804    -0.71700
O1057       O  0.39067061  0.35172241  0.79377289    -0.71700
O1058       O  0.45019038  0.31273728  0.77285295    -0.71800
V1059       V  0.40173602  0.29686279  0.79559239     1.35200
V1060       V  0.41988637  0.33136749  0.78353418     1.35200
C1061       C  0.45249277  0.28866919  0.77806621     0.77600
C1062       C  0.36995772  0.34042893  0.80108910     0.77600
C1063       C  0.39174572  0.30762380  0.74404808     0.77500
C1064       C  0.42777292  0.32129770  0.83596017     0.77500
O1065       O  0.23936599  0.45158815  0.78126563    -0.71700
O1066       O  0.21794320  0.39171490  0.82017754    -0.71900
O1067       O  0.19548125  0.43649724  0.80491493    -0.71700
O1068       O  0.26192233  0.40572803  0.79598931    -0.71700
O1069       O  0.27568715  0.42362897  0.83210010    -0.71700
O1070       O  0.20830442  0.45553704  0.84071463    -0.71700
O1071       O  0.23092994  0.41057003  0.85605410    -0.71700
O1072       O  0.25301588  0.46977239  0.81718021    -0.71800
V1073       V  0.22906375  0.42180779  0.80124656     1.35200
V1074       V  0.24187294  0.43961691  0.83576873     1.35200
C1075       C  0.24861442  0.47155145  0.79288034     0.77600
C1076       C  0.22075941  0.39097362  0.84485152     0.77600
C1077       C  0.19021725  0.45094523  0.82428480     0.77500
C1078       C  0.27962847  0.40801590  0.81309974     0.77500
O1079       O  0.23766328  0.25240125  0.93920231    -0.71700
O1080       O  0.19547925  0.23311833  0.88040349    -0.71900
O1081       O  0.22009696  0.27675853  0.89559143    -0.71700
O1082       O  0.21347902  0.20863870  0.92287697    -0.71700
O1083       O  0.17752123  0.21985078  0.94292750    -0.71700
O1084       O  0.18609863  0.28987221  0.91792028    -0.71700
O1085       O  0.16091040  0.24712720  0.90128899    -0.71700
O1086       O  0.20229496  0.26291117  0.96045424    -0.71800
V1087       V  0.21608850  0.24305819  0.91001277     1.35200
V1088       V  0.18243878  0.25473951  0.93034682     1.35200
C1089       C  0.22692005  0.26022871  0.96028284     0.77600
C1090       C  0.17095748  0.23738512  0.88088075     0.77600
C1091       C  0.20387623  0.29462555  0.90122783     0.77500
C1092       C  0.19398104  0.20220658  0.93663261     0.77500
O1093       O  0.27326453  0.25174351  0.07709685    -0.71700
O1094       O  0.31052499  0.23402210  0.13937284    -0.71900
O1095       O  0.28664695  0.27699348  0.12155899    -0.71700
O1096       O  0.29637684  0.20858685  0.09586726    -0.71700
O1097       O  0.33292181  0.21992967  0.07731145    -0.71700
O1098       O  0.32327778  0.28949961  0.10379670    -0.71700
O1099       O  0.34694711  0.24572150  0.12067111    -0.71700
O1100       O  0.30995571  0.26374103  0.05910876    -0.71800
V1101       V  0.29236954  0.24315462  0.10802616     1.35200
V1102       V  0.32751006  0.25460750  0.09045873     1.35200
C1103       C  0.28554797  0.26000346  0.05715048     0.77600
C1104       C  0.33523690  0.23683374  0.14052240     0.77600
C1105       C  0.30364066  0.29460920  0.11829063     0.77500
C1106       C  0.31648120  0.20215939  0.08293469     0.77500
O1107       O  0.27899640  0.45558226  0.23926751    -0.71700
O1108       O  0.29123287  0.39057653  0.20377998    -0.71900
O1109       O  0.32087091  0.43155102  0.21812956    -0.71700
O1110       O  0.24971399  0.41369642  0.22575859    -0.71700
O1111       O  0.24123404  0.42851264  0.18674569    -0.71700
O1112       O  0.31197272  0.45329353  0.18265860    -0.71700
O1113       O  0.28610163  0.41056314  0.16654820    -0.71700
O1114       O  0.26718550  0.47290000  0.20220737    -0.71800
V1115       V  0.28500673  0.42328059  0.22108183     1.35200
V1116       V  0.27665393  0.44110709  0.18529166     1.35200
C1117       C  0.27139260  0.47550199  0.22646576     0.77600
C1118       C  0.29093802  0.38975353  0.17892504     0.77600
C1119       C  0.32870434  0.44544998  0.19933584     0.77500
C1120       C  0.23389076  0.41602353  0.20693263     0.77500
O1121       O  0.23908154  0.08765419  0.28181630    -0.71700
O1122       O  0.22940958  0.15298068  0.31729495    -0.71900
O1123       O  0.26998196  0.12850990  0.29457646    -0.71700
O1124       O  0.19828860  0.11298045  0.30389216    -0.71700
O1125       O  0.20731080  0.09066044  0.33900818    -0.71700
O1126       O  0.27869141  0.11386097  0.33359918    -0.71700
O1127       O  0.23424606  0.13290560  0.35455868    -0.71700
O1128       O  0.25147252  0.07009428  0.31856462    -0.71800
V1129       V  0.23439460  0.12008824  0.30004651     1.35200
V1130       V  0.24291866  0.10209163  0.33570496     1.35200
C1131       C  0.24672700  0.06761013  0.29437005     0.77600
C1132       C  0.22947086  0.15370918  0.34212115     0.77600
C1133       C  0.28616125  0.12571887  0.31305254     0.77500
C1134       C  0.19043867  0.09932882  0.32288916     0.77500
O1135       O  0.43606965  0.25550294  0.27711982    -0.71700
O1136       O  0.37667108  0.21276670  0.29454479    -0.71900
O1137       O  0.41882915  0.23075649  0.31967116    -0.71700
O1138       O  0.39235030  0.23835464  0.25163880    -0.71700
O1139       O  0.41452336  0.20439210  0.23821410    -0.71700
O1140       O  0.43952602  0.19520568  0.30833723    -0.71700
O1141       O  0.39806290  0.17853356  0.28062054    -0.71700
O1142       O  0.45739758  0.22042110  0.26588632    -0.71800
V1143       V  0.40646186  0.23375990  0.28530849     1.35200
V1144       V  0.42707969  0.20039175  0.27338095     1.35200
C1145       C  0.45754515  0.24483079  0.27002431     0.77600
C1146       C  0.37747187  0.18819171  0.29048569     0.77600
C1147       C  0.43277243  0.21141120  0.32604102     0.77500
C1148       C  0.39767229  0.22218934  0.23369268     0.77500
O1149       O  0.08277578  0.28614784  0.23879540    -0.71700
O1150       O  0.14339331  0.32671941  0.22002072    -0.71900
O1151       O  0.12694710  0.30311134  0.26368440    -0.71700
O1152       O  0.10077516  0.30900926  0.19502918    -0.71700
O1153       O  0.08139009  0.34553884  0.20518090    -0.71700
O1154       O  0.10510255  0.33781606  0.27577292    -0.71700
O1155       O  0.12267464  0.36177329  0.23296023    -0.71700
O1156       O  0.06235721  0.32232441  0.24828396    -0.71800
V1157       V  0.11297918  0.30680734  0.22971368     1.35200
V1158       V  0.09315716  0.34107082  0.24038381     1.35200
C1159       C  0.06174133  0.29773216  0.24578839     0.77600
C1160       C  0.14319227  0.35132863  0.22390401     0.77600
C1161       C  0.12154502  0.31987847  0.28106277     0.77500
C1162       C  0.08777184  0.32874060  0.18787587     0.77500
O1163       O  0.24341024  0.29607950  0.44116678    -0.71700
O1164       O  0.20685268  0.31071579  0.37747745    -0.71900
O1165       O  0.21850363  0.33755950  0.42093056    -0.71700
O1166       O  0.23249458  0.26924089  0.39681335    -0.71700
O1167       O  0.19592805  0.25527855  0.41331415    -0.71700
O1168       O  0.18244756  0.32447992  0.43926185    -0.71700
O1169       O  0.17059251  0.29785419  0.39559155    -0.71700
O1170       O  0.20711847  0.28187850  0.45814253    -0.71800
V1171       V  0.22465236  0.30304004  0.40949542     1.35200
V1172       V  0.18976623  0.29003003  0.42633346     1.35200
C1173       C  0.23118165  0.28715966  0.46089106     0.77600
C1174       C  0.18227881  0.30701368  0.37582085     0.48800
C1175       C  0.19809437  0.34301412  0.43383999     0.77500
C1176       C  0.21634945  0.25079432  0.39969662     0.77500
O1177       O  0.74101167  0.29511137  0.08753253    -0.71700
O1178       O  0.69823240  0.31476191  0.14619112    -0.71900
O1179       O  0.72520673  0.27190334  0.13265955    -0.71700
O1180       O  0.71464628  0.33809755  0.10205049    -0.71700
O1181       O  0.67938893  0.32426255  0.08267629    -0.71700
O1182       O  0.69151318  0.25621733  0.11175675    -0.71700
O1183       O  0.66422851  0.29851290  0.12620968    -0.71700
O1184       O  0.70611183  0.28149697  0.06737601    -0.71800
V1185       V  0.71915957  0.30460919  0.11665856     1.35200
V1186       V  0.68601927  0.29037722  0.09730486     1.35200
C1187       C  0.73053252  0.28581727  0.06693819     0.77600
C1188       C  0.67396952  0.30916771  0.14630208     0.77600
C1189       C  0.70967730  0.25314172  0.12848748     0.77500
C1190       C  0.69521003  0.34284974  0.08750551     0.77500
O1191       O  0.57653530  0.29049357  0.28581716    -0.71700
O1192       O  0.64022425  0.32813243  0.29963069    -0.71900
O1193       O  0.59960124  0.31196683  0.32826006    -0.71700
O1194       O  0.61831977  0.30562913  0.25718093    -0.71700
O1195       O  0.60083285  0.34359809  0.24872110    -0.71700
O1196       O  0.57753411  0.34750947  0.31992769    -0.71700
O1197       O  0.61918643  0.36460290  0.29325152    -0.71700
O1198       O  0.55762564  0.32718757  0.27541582    -0.71800
V1199       V  0.60821709  0.30969907  0.29247172     1.35200
V1200       V  0.58906668  0.34495597  0.28438319     1.35200
C1201       C  0.55600663  0.30267839  0.27846712     0.77600
C1202       C  0.64014969  0.35307036  0.29964319     0.77600
C1203       C  0.58578924  0.33081143  0.33640879     0.77500
C1204       C  0.61414664  0.32391005  0.24113273     0.77500
O1205       O  0.73566008  0.09575356  0.25294591    -0.71700
O1206       O  0.72472051  0.15906912  0.21421374    -0.71900
O1207       O  0.69447112  0.11930191  0.22962800    -0.71700
O1208       O  0.76595962  0.13671523  0.23825065    -0.71700
O1209       O  0.77500322  0.11976987  0.20016591    -0.71700
O1210       O  0.70415045  0.09549884  0.19552229    -0.71700
O1211       O  0.73074374  0.13718364  0.17820056    -0.71700
O1212       O  0.74849804  0.07676936  0.21706329    -0.71800
V1213       V  0.73046623  0.12725791  0.23318227     1.35200
V1214       V  0.73953193  0.10757156  0.19849271     1.35200
C1215       C  0.74361447  0.07518146  0.24126271     0.77600
C1216       C  0.72507751  0.15856181  0.18931897     0.77600
C1217       C  0.68704133  0.10466011  0.21114396     0.77500
C1218       C  0.78224581  0.13297959  0.21997077     0.77500
O1219       O  0.93923559  0.25721645  0.24362117    -0.71700
O1220       O  0.87842683  0.21633267  0.22739001    -0.71900
O1221       O  0.89439820  0.24376000  0.26899819    -0.71700
O1222       O  0.92228778  0.23073338  0.20225311    -0.71700
O1223       O  0.94133994  0.19526192  0.21606305    -0.71700
O1224       O  0.91476403  0.20970889  0.28465865    -0.71700
O1225       O  0.89801880  0.18204372  0.24348881    -0.71700
O1226       O  0.95886691  0.22208158  0.25741575    -0.71800
V1227       V  0.90900271  0.23637804  0.23596418     1.35200
V1228       V  0.92790429  0.20296264  0.25019345     1.35200
C1229       C  0.96000592  0.24617524  0.25191159     0.77600
C1230       C  0.87784909  0.19219147  0.23328331     0.77600
C1231       C  0.89888379  0.22864028  0.28795975     0.77500
C1232       C  0.93650977  0.21105965  0.19751401     0.77500
O1233       O  0.77408063  0.25172528  0.44575800    -0.71700
O1234       O  0.81196916  0.24216612  0.38191959    -0.71900
O1235       O  0.79709459  0.21114516  0.42136022    -0.71700
O1236       O  0.78824077  0.28268176  0.40530159    -0.71700
O1237       O  0.82637003  0.29161036  0.42224805    -0.71700
O1238       O  0.83196108  0.22023090  0.44406652    -0.71700
O1239       O  0.84845975  0.24828319  0.40302704    -0.71700
O1240       O  0.81022171  0.26364467  0.46476620    -0.71800
V1241       V  0.79348082  0.24717010  0.41403586     1.35200
V1242       V  0.82850008  0.25585919  0.43330199     1.35200
C1243       C  0.78591482  0.25898482  0.46641751     0.77600
C1244       C  0.83685152  0.24332583  0.38175709     0.77600
C1245       C  0.81585394  0.20332996  0.43546031     0.77500
C1246       C  0.80649042  0.29890334  0.40916896     0.77500
O1247       O  0.77782307  0.45500386  0.28488581    -0.71700
O1248       O  0.79524266  0.39318917  0.32410308    -0.71900
O1249       O  0.75229776  0.41034238  0.29957609    -0.71700
O1250       O  0.82060718  0.43619590  0.30842993    -0.71700
O1251       O  0.80955359  0.45550758  0.34470319    -0.71700
O1252       O  0.73924461  0.43000165  0.33511567    -0.71700
O1253       O  0.78219067  0.41308346  0.35953983    -0.71700
O1254       O  0.76623790  0.47414995  0.32106907    -0.71800
V1255       V  0.78610582  0.42416601  0.30486361     1.35200
V1256       V  0.77443888  0.44294767  0.33933291     1.35200
C1257       C  0.77049588  0.47574045  0.29677566     0.77600
C1258       C  0.79116372  0.39276622  0.34864312     0.77600
C1259       C  0.73466551  0.41403708  0.31650845     0.77500
C1260       C  0.82718465  0.44965436  0.32800661     0.77500
O1261       O  0.77387412  0.79421435  0.08350040    -0.71700
O1262       O  0.80990558  0.81003276  0.14729743    -0.71900
O1263       O  0.79529110  0.83720807  0.10515937    -0.71700
O1264       O  0.78818127  0.76702812  0.12718361    -0.71700
O1265       O  0.82618322  0.75729122  0.11020480    -0.71700
O1266       O  0.83163034  0.82749802  0.08491342    -0.71700
O1267       O  0.84711151  0.80200576  0.12805865    -0.71700
O1268       O  0.81095474  0.78295713  0.06582845    -0.71800
V1269       V  0.79243840  0.80181283  0.11527710     1.35200
V1270       V  0.82817443  0.79249026  0.09747156     1.35200
C1271       C  0.78651003  0.78665791  0.06336711     0.77600
C1272       C  0.83476626  0.80894264  0.14842253     0.77600
C1273       C  0.81488497  0.84452211  0.09200105     0.77500
C1274       C  0.80671941  0.75083347  0.12424458     0.77500
O1275       O  0.73258288  0.95541799  0.28424614    -0.71700
O1276       O  0.71971542  0.89105891  0.31998801    -0.71900
O1277       O  0.69042073  0.93230451  0.30571566    -0.71700
O1278       O  0.76168115  0.91349388  0.29783979    -0.71700
O1279       O  0.77065619  0.93006085  0.33609511    -0.71700
O1280       O  0.69941823  0.95285704  0.34188853    -0.71700
O1281       O  0.72674499  0.91070719  0.35709772    -0.71700
O1282       O  0.74349044  0.97346178  0.32115943    -0.71800
V1283       V  0.72630752  0.92349932  0.30262489     1.35200
V1284       V  0.73497272  0.94154926  0.33829019     1.35200
C1285       C  0.74022137  0.97558014  0.29670060     0.77600
C1286       C  0.72070270  0.89007459  0.34481696     0.77600
C1287       C  0.68256245  0.94553544  0.32510640     0.77500
C1288       C  0.77797405  0.91722160  0.31607013     0.77500
O1289       O  0.93327251  0.79212876  0.28704436    -0.71700
O1290       O  0.87301341  0.83363442  0.30461388    -0.71900
O1291       O  0.88941637  0.80860184  0.26165924    -0.71700
O1292       O  0.91559986  0.81651396  0.33004042    -0.71700
O1293       O  0.93571496  0.85227339  0.31892952    -0.71700
O1294       O  0.91075039  0.84304194  0.24864128    -0.71700
O1295       O  0.89368991  0.86836911  0.29121661    -0.71700
O1296       O  0.95393723  0.82752089  0.27601309    -0.71800
V1297       V  0.90331922  0.81334376  0.29549575     1.35200
V1298       V  0.92324034  0.84707894  0.28389121     1.35200
C1299       C  0.95433957  0.80300213  0.27936653     0.77600
C1300       C  0.87311986  0.85811669  0.30033520     0.77600
C1301       C  0.89445832  0.82485710  0.24379227     0.77500
C1302       C  0.92948777  0.83586327  0.33653815     0.77500
O1303       O  0.78160908  0.59643833  0.25319187    -0.71700
O1304       O  0.79674270  0.65869052  0.21388800    -0.71900
O1305       O  0.75453777  0.64008330  0.23870747    -0.71700
O1306       O  0.82386937  0.61645925  0.22910685    -0.71700
O1307       O  0.81221122  0.59481123  0.19426601    -0.71700
O1308       O  0.74273920  0.62209603  0.20193738    -0.71700
O1309       O  0.78674243  0.63783190  0.17821329    -0.71700
O1310       O  0.76813425  0.57785043  0.21742015    -0.71800
V1311       V  0.78885393  0.62744686  0.23313945     1.35200
V1312       V  0.77758028  0.60842679  0.19873278     1.35200
C1313       C  0.77296583  0.57609062  0.24161205     0.77600
C1314       C  0.79462637  0.65864475  0.18907767     0.77600
C1315       C  0.73734714  0.63687740  0.22123548     0.77500
C1316       C  0.83007398  0.60217991  0.20991587     0.77500
O1317       O  0.74372193  0.74888593  0.43809576    -0.71700
O1318       O  0.69988384  0.73023592  0.37986273    -0.71900
O1319       O  0.72554305  0.77363258  0.39465343    -0.71700
O1320       O  0.71881422  0.70557811  0.42201958    -0.71700
O1321       O  0.68374503  0.71707161  0.44325119    -0.71700
O1322       O  0.69166815  0.78689812  0.41697331    -0.71700
O1323       O  0.66586624  0.74384203  0.40173776    -0.71700
O1324       O  0.70888356  0.76041287  0.45968897    -0.71800
V1325       V  0.72139388  0.73995234  0.40913013     1.35200
V1326       V  0.68828297  0.75189184  0.43009377     1.35200
C1327       C  0.73345178  0.75694219  0.45934552     0.77600
C1328       C  0.67522349  0.73390194  0.38108318     0.77600
C1329       C  0.70932763  0.79156836  0.40006973     0.77500
C1330       C  0.69985500  0.69922269  0.43646741     0.77500
O1331       O  0.57025205  0.74857167  0.24509879    -0.71700
O1332       O  0.63671498  0.71571078  0.23461699    -0.71900
O1333       O  0.59654476  0.72882506  0.20394946    -0.71700
O1334       O  0.61148218  0.73607597  0.27590581    -0.71700
O1335       O  0.59768771  0.69637928  0.28293400    -0.71700
O1336       O  0.57544943  0.69255127  0.21145833    -0.71700
O1337       O  0.61792904  0.67769855  0.23838518    -0.71700
O1338       O  0.55356822  0.71092184  0.25574814    -0.71800
V1339       V  0.60328684  0.73164831  0.24012142     1.35200
V1340       V  0.58633429  0.69514275  0.24716035     1.35200
C1341       C  0.55039231  0.73518357  0.25177236     0.77600
C1342       C  0.63833349  0.69091062  0.23380897     0.77600
C1343       C  0.58376012  0.70950846  0.19537223     0.77500
C1344       C  0.60919704  0.71683416  0.29118312     0.77500
C1345       C  0.65726797  0.72741306  0.35906635     0.00000
C1346       C  0.63455858  0.74287285  0.35567171    -0.11900
C1347       C  0.61742771  0.73852490  0.33463158     0.02200
C1348       C  0.62243942  0.71794484  0.31685805    -0.00100
C1349       C  0.64428242  0.70155502  0.32095526    -0.11800
C1350       C  0.66177550  0.70619849  0.34174175     0.02100
H1351       H  0.63061228  0.75903229  0.36899686     0.15100
H1352       H  0.64848955  0.68596502  0.30703195     0.15100
C1353       C  0.68403923  0.68887516  0.34487535     0.36700
C1354       C  0.59502807  0.75566977  0.33135842     0.36600
N1355       N  0.70186808  0.67496865  0.34742203    -0.43600
N1356       N  0.57702899  0.76934031  0.32873054    -0.43600
C1357       C  0.66355191  0.67754040  0.22840477     0.00000
C1358       C  0.68683414  0.68965934  0.23651677    -0.11900
C1359       C  0.71100081  0.67686958  0.23396198     0.02200
C1360       C  0.71217614  0.65127361  0.22309715    -0.00100
C1361       C  0.68908307  0.63971156  0.21364965    -0.11800
C1362       C  0.66484324  0.65256213  0.21624330     0.02100
H1363       H  0.68612119  0.70900560  0.24542317     0.15100
H1364       H  0.68990304  0.62042692  0.20463498     0.15100
C1365       C  0.64176999  0.63994109  0.20566215     0.36700
C1366       C  0.73430502  0.69093424  0.24196387     0.36600
N1367       N  0.62329443  0.62987103  0.19709923    -0.43600
N1368       N  0.75289334  0.70233587  0.24832371    -0.43600
C1369       C  0.80425078  0.90513368  0.31406428     0.00000
C1370       C  0.81749658  0.90653198  0.29000222    -0.11900
C1371       C  0.84017301  0.89166448  0.28541964     0.02200
C1372       C  0.84967907  0.87455745  0.30500444    -0.00100
C1373       C  0.83666328  0.87333916  0.32921488    -0.11800
C1374       C  0.81420228  0.88866113  0.33397714     0.02100
H1375       H  0.80964939  0.91875397  0.27445935     0.15100
H1376       H  0.84397402  0.86030480  0.34434218     0.15100
C1377       C  0.80074595  0.88582344  0.35873791     0.36700
C1378       C  0.85238228  0.89311579  0.25987483     0.36600
N1379       N  0.78988869  0.88355731  0.37854140    -0.43600
N1380       N  0.86212113  0.89422968  0.23939930    -0.43600
C1381       C  0.71582395  0.86521239  0.35913847     0.00000
C1382       C  0.71991805  0.84142238  0.34588783    -0.11900
C1383       C  0.71749695  0.81741792  0.35883984     0.02200
C1384       C  0.71073493  0.81677656  0.38576343    -0.00100
C1385       C  0.70553622  0.84044094  0.39884135    -0.11800
C1386       C  0.70814091  0.86456806  0.38587559     0.02100
H1387       H  0.72553881  0.84152589  0.32537104     0.15100
H1388       H  0.69994703  0.84011530  0.41936098     0.15100
C1389       C  0.70234372  0.88822351  0.40043817     0.36700
C1390       C  0.72135884  0.79369873  0.34370019     0.36600
N1391       N  0.69765832  0.90716398  0.41212479    -0.43600
N1392       N  0.72438932  0.77471949  0.33154666    -0.43600
C1393       C  0.80654289  0.72641778  0.13963154     0.00000
C1394       C  0.81058452  0.72848350  0.16676449    -0.11900
C1395       C  0.80792605  0.70668619  0.18324379     0.02200
C1396       C  0.80044217  0.68213760  0.17259077    -0.00100
C1397       C  0.79737141  0.68008329  0.14509780    -0.11800
C1398       C  0.80044030  0.70190674  0.12866912     0.02100
H1399       H  0.81553453  0.74741782  0.17518022     0.15100
H1400       H  0.79200280  0.66146479  0.13630626     0.15100
C1401       C  0.79630646  0.69893894  0.10082337     0.36700
C1402       C  0.81284429  0.71041007  0.21087410     0.36600
N1403       N  0.79301921  0.69656078  0.07849301    -0.43600
N1404       N  0.81698794  0.71356153  0.23296872    -0.43600
C1405       C  0.84931956  0.81507214  0.17293848     0.00000
C1406       C  0.87563573  0.82358283  0.17135953    -0.11900
C1407       C  0.89071458  0.82785617  0.19406323     0.02200
C1408       C  0.87963030  0.82300000  0.21887585    -0.00100
C1409       C  0.85320455  0.81518394  0.22042981    -0.11800
C1410       C  0.83801085  0.81137483  0.19793778     0.02100
H1411       H  0.88455150  0.82670577  0.15231146     0.15100
H1412       H  0.84433405  0.81180714  0.23947409     0.15100
C1413       C  0.81128013  0.80250562  0.20129601     0.36700
C1414       C  0.91770274  0.83604951  0.19134391     0.36600
N1415       N  0.78987735  0.79540496  0.20409414    -0.43600
N1416       N  0.93934286  0.84264106  0.18918914    -0.43600
C1417       C  0.76841309  0.50166620  0.28311219     0.00000
C1418       C  0.76740744  0.50229396  0.25564357    -0.11900
C1419       C  0.76809923  0.52610220  0.24184337     0.02200
C1420       C  0.76974232  0.55040138  0.25551654    -0.00100
C1421       C  0.77015774  0.54980942  0.28302635    -0.11800
C1422       C  0.76958112  0.52597929  0.29683246     0.02100
H1423       H  0.76671525  0.48399350  0.24476128     0.15100
H1424       H  0.77158500  0.56807405  0.29389178     0.15100
C1425       C  0.77177780  0.52734067  0.32504604     0.36700
C1426       C  0.76854707  0.52458116  0.21356973     0.36600
N1427       N  0.77366832  0.52854008  0.34763319    -0.43600
N1428       N  0.76902331  0.52327134  0.19091713    -0.43600
C1429       C  0.80471704  0.32490360  0.39666813     0.00000
C1430       C  0.78050408  0.33802986  0.39745632    -0.11900
C1431       C  0.77590007  0.36007406  0.38189610     0.02200
C1432       C  0.79562577  0.36912914  0.36467788    -0.00100
C1433       C  0.81998628  0.35620499  0.36395388    -0.11800
C1434       C  0.82475606  0.33431914  0.37997029     0.02100
H1435       H  0.76484053  0.33055227  0.40977169     0.15100
H1436       H  0.83527581  0.36324934  0.35095231     0.15100
C1437       C  0.84972743  0.32096161  0.37776220     0.36700
C1438       C  0.75023655  0.37225713  0.38299305     0.36600
N1439       N  0.86972773  0.31023307  0.37599697    -0.43600
N1440       N  0.72968386  0.38200311  0.38384829    -0.43600
C1441       C  0.85239301  0.23925435  0.35751225     0.00000
C1442       C  0.87918137  0.23242928  0.35971796    -0.11900
C1443       C  0.89493152  0.22895418  0.33743087     0.02200
C1444       C  0.88387474  0.23228729  0.31240238    -0.00100
C1445       C  0.85729351  0.23944281  0.31016605    -0.11800
C1446       C  0.84155666  0.24302142  0.33231849     0.02100
H1447       H  0.88794384  0.22991290  0.37892994     0.15100
H1448       H  0.84868768  0.24219298  0.29089648     0.15100
C1449       C  0.81475555  0.25160114  0.32845931     0.36700
C1450       C  0.92256890  0.22342187  0.34073898     0.36600
N1451       N  0.79333171  0.25859564  0.32530802    -0.43600
N1452       N  0.94478168  0.21923905  0.34333032    -0.43600
C1453       C  0.74584758  0.04948576  0.25506978     0.00000
C1454       C  0.74850363  0.04901220  0.28246348    -0.11900
C1455       C  0.74821075  0.02525802  0.29639969     0.02200
C1456       C  0.74429410  0.00114499  0.28295326    -0.00100
C1457       C  0.74277923  0.00162488  0.25546746    -0.11800
C1458       C  0.74378415  0.02523533  0.24151192     0.02100
H1459       H  0.75064876  0.06733132  0.29311432     0.15100
H1460       H  0.74029422  0.98342579  0.24468769     0.15100
C1461       C  0.74151067  0.02373406  0.21331034     0.36700
C1462       C  0.75170786  0.02654031  0.32446635     0.36600
N1463       N  0.73980136  0.02241011  0.19071724    -0.43600
N1464       N  0.75474119  0.02766702  0.34693081    -0.43600
C1465       C  0.80838402  0.14547868  0.22160732     0.00000
C1466       C  0.82168143  0.14499939  0.24568162    -0.11900
C1467       C  0.84439205  0.15991262  0.24964161     0.02200
C1468       C  0.85405090  0.17605680  0.22934553    -0.00100
C1469       C  0.84083517  0.17656330  0.20520434    -0.11800
C1470       C  0.81822399  0.16131776  0.20113671     0.02100
H1471       H  0.81388119  0.13341961  0.26170554     0.15100
H1472       H  0.84811037  0.18897269  0.18957196     0.15100
C1473       C  0.80447057  0.16366119  0.17648376     0.36700
C1474       C  0.85647608  0.15957416  0.27528194     0.36600
N1475       N  0.79333405  0.16558979  0.15679686    -0.43600
N1476       N  0.86612557  0.15943355  0.29582796    -0.43600
C1477       C  0.71034978  0.39819039  0.31489876     0.00000
C1478       C  0.68569980  0.40995275  0.31814784    -0.11900
C1479       C  0.66257229  0.39548794  0.31411050     0.02200
C1480       C  0.66393840  0.36864152  0.30651478    -0.00100
C1481       C  0.68868699  0.35662539  0.30489514    -0.11800
C1482       C  0.71169670  0.37100258  0.30915553     0.02100
H1483       H  0.68449960  0.43059889  0.32323494     0.15100
H1484       H  0.69015732  0.33598507  0.29985398     0.15100
C1485       C  0.73647527  0.35708406  0.30830724     0.36700
C1486       C  0.63780813  0.40869430  0.31847213     0.36600
N1487       N  0.75623145  0.34578676  0.30782276    -0.43600
N1488       N  0.61798326  0.41927677  0.32211324    -0.43600
C1489       C  0.71954948  0.18238203  0.17344971     0.00000
C1490       C  0.72102692  0.20702028  0.18565348    -0.11900
C1491       C  0.71764567  0.23011806  0.17130907     0.02200
C1492       C  0.71226709  0.22892178  0.14412116    -0.00100
C1493       C  0.70971594  0.20441493  0.13199809    -0.11800
C1494       C  0.71358310  0.18122405  0.14623848     0.02100
H1495       H  0.72536918  0.20833950  0.20643247     0.15100
H1496       H  0.70539515  0.20339721  0.11119314     0.15100
C1497       C  0.71131858  0.15668342  0.13220119     0.36700
C1498       C  0.71928292  0.25482909  0.18517765     0.36600
N1499       N  0.70962659  0.13706914  0.12084282    -0.43600
N1500       N  0.72062518  0.27462294  0.19626541    -0.43600
C1501       C  0.62618679  0.32212288  0.21480271     0.00000
C1502       C  0.62640142  0.29759591  0.20223427    -0.11900
C1503       C  0.64159199  0.29325344  0.17978437     0.02200
C1504       C  0.65728778  0.31365308  0.16960837    -0.00100
C1505       C  0.65689480  0.33831970  0.18190039    -0.11800
C1506       C  0.64132664  0.34275839  0.20425125     0.02100
H1507       H  0.61528566  0.28147791  0.21052074     0.15100
H1508       H  0.66889748  0.35405011  0.17414728     0.15100
C1509       C  0.64261674  0.36803508  0.21701722     0.36700
C1510       C  0.64206342  0.26716088  0.16859124     0.36600
N1511       N  0.64363547  0.38824595  0.22735882    -0.43600
N1512       N  0.64252331  0.24624694  0.15969608    -0.43600
C1513       C  0.03620814  0.28391337  0.24973912     0.00000
C1514       C  0.01298535  0.29908932  0.24935159    -0.11900
C1515       C  0.98806714  0.28757430  0.25085082     0.02200
C1516       C  0.98574922  0.26009256  0.25329171    -0.00100
C1517       C  0.00898854  0.24497374  0.25475816    -0.11800
C1518       C  0.03395550  0.25649595  0.25277891     0.02100
H1519       H  0.01414745  0.32020056  0.24703021     0.15100
H1520       H  0.00774277  0.22381675  0.25654116     0.15100
C1521       C  0.05673865  0.23959397  0.25373631     0.36700
C1522       C  0.96537781  0.30459307  0.24938791     0.36600
N1523       N  0.07491544  0.22591698  0.25446259    -0.43600
N1524       N  0.94728035  0.31833260  0.24809353    -0.43600
C1525       C  0.13624876  0.31925157  0.30589051     0.00000
C1526       C  0.16377891  0.31936042  0.30443666    -0.11900
C1527       C  0.17928092  0.31648610  0.32688885     0.02200
C1528       C  0.16711635  0.31280058  0.35154483    -0.00100
C1529       C  0.13939616  0.31352996  0.35295533    -0.11800
C1530       C  0.12397665  0.31689207  0.33041887     0.02100
H1531       H  0.17327481  0.32145924  0.28542669     0.15100
H1532       H  0.12963152  0.31104773  0.37167521     0.15100
C1533       C  0.09570672  0.31644193  0.33270470     0.36700
C1534       C  0.20748237  0.31665662  0.32369608     0.36600
N1535       N  0.07303538  0.31603496  0.33445974    -0.43600
N1536       N  0.23007024  0.31691577  0.32102593    -0.43600
C1537       C  0.48274874  0.25998750  0.26857362     0.00000
C1538       C  0.48241805  0.28705248  0.27390355    -0.11900
C1539       C  0.50580299  0.30145429  0.27643026     0.02200
C1540       C  0.53054968  0.28876270  0.27398653    -0.00100
C1541       C  0.53091936  0.26195726  0.26774094    -0.11800
C1542       C  0.50756706  0.24764195  0.26469792     0.02100
H1543       H  0.46377433  0.29699848  0.27682970     0.15100
H1544       H  0.54964281  0.25201750  0.26529149     0.15100
C1545       C  0.51009468  0.22017976  0.25807810     0.36700
C1546       C  0.50352836  0.32903871  0.28256677     0.36600
N1547       N  0.51230561  0.19820713  0.25269808    -0.43600
N1548       N  0.50145236  0.35116651  0.28730228    -0.43600
C1549       C  0.31229614  0.13804884  0.31042465     0.00000
C1550       C  0.32607941  0.13421794  0.28690334    -0.11900
C1551       C  0.34754332  0.15002250  0.28031710     0.02200
C1552       C  0.35516387  0.17076564  0.29712668    -0.00100
C1553       C  0.34183115  0.17420091  0.32101008    -0.11800
C1554       C  0.32078106  0.15781291  0.32793330     0.02100
H1555       H  0.31941132  0.11938159  0.27314982     0.15100
H1556       H  0.34787812  0.18970893  0.33428875     0.15100
C1557       C  0.30739694  0.16257678  0.35244961     0.36700
C1558       C  0.36038780  0.14544035  0.25544717     0.36600
N1559       N  0.29685393  0.16638829  0.37220821    -0.43600
N1560       N  0.37067166  0.14170975  0.23553515    -0.43600
C1561       C  0.22074694  0.22527026  0.38600943     0.00000
C1562       C  0.20233356  0.20493584  0.38905247    -0.11900
C1563       C  0.20467068  0.18146424  0.37478550     0.02200
C1564       C  0.22523204  0.17837127  0.35651211    -0.00100
C1565       C  0.24355693  0.19842493  0.35334149    -0.11800
C1566       C  0.24198900  0.22141675  0.36823831     0.02100
H1567       H  0.18596082  0.20738040  0.40245478     0.15100
H1568       H  0.25968522  0.19575819  0.33965137     0.15100
C1569       C  0.26284497  0.24029168  0.36481991     0.36700
C1570       C  0.18535963  0.16111670  0.37863296     0.36600
N1571       N  0.27974278  0.25520198  0.36210812    -0.43600
N1572       N  0.16988071  0.14480895  0.38168949    -0.43600
C1573       C  0.16620982  0.36811269  0.21898359     0.00000
C1574       C  0.17930403  0.36709457  0.19482312    -0.11900
C1575       C  0.20023783  0.38415661  0.18946237     0.02200
C1576       C  0.20842582  0.40242091  0.20872495    -0.00100
C1577       C  0.19509156  0.40346430  0.23270839    -0.11800
C1578       C  0.17413955  0.38672797  0.23796881     0.02100
H1579       H  0.17303690  0.35284801  0.17992677     0.15100
H1580       H  0.20181526  0.41708410  0.24804945     0.15100
C1581       C  0.16192915  0.38807135  0.26354101     0.36700
C1582       C  0.21402975  0.38148140  0.16485457     0.36600
N1583       N  0.15213111  0.38906708  0.28400304    -0.43600
N1584       N  0.22510865  0.37928534  0.14514588    -0.43600
C1585       C  0.30087361  0.31956550  0.13301790     0.00000
C1586       C  0.28639641  0.31905337  0.15655804    -0.11900
C1587       C  0.28340180  0.34148942  0.17204964     0.02200
C1588       C  0.29523103  0.36514602  0.16423690    -0.00100
C1589       C  0.30941451  0.36589713  0.14057001    -0.11800
C1590       C  0.31237464  0.34337348  0.12496799     0.02100
H1591       H  0.27728050  0.30096459  0.16300452     0.15100
H1592       H  0.31802230  0.38423576  0.13413243     0.15100
C1593       C  0.32619774  0.34558334  0.10035933     0.36700
C1594       C  0.26667171  0.34005761  0.19490157     0.36600
N1595       N  0.33714393  0.34745294  0.08056120    -0.43600
N1596       N  0.25305510  0.33893288  0.21304239    -0.43600
C1597       C  0.38225419  0.22341485  0.20924974     0.00000
C1598       C  0.35522376  0.22861952  0.21168687    -0.11900
C1599       C  0.33927871  0.23197238  0.18968508     0.02200
C1600       C  0.35047118  0.23048940  0.16441821    -0.00100
C1601       C  0.37742990  0.22443109  0.16195376    -0.11800
C1602       C  0.39329880  0.22064003  0.18411850     0.02100
H1603       H  0.34650342  0.23037418  0.23104049     0.15100
H1604       H  0.38625013  0.22302044  0.14263816     0.15100
C1605       C  0.42093695  0.21529050  0.18056942     0.36700
C1606       C  0.31185935  0.23815103  0.19383710     0.36600
N1607       N  0.44309471  0.21100657  0.17765764    -0.43600
N1608       N  0.28989840  0.24306147  0.19724210    -0.43600
C1609       C  0.24244771  0.26463307  0.98465434     0.00000
C1610       C  0.26962644  0.25972371  0.98425563    -0.11900
C1611       C  0.28439354  0.25956439  0.00743107     0.02200
C1612       C  0.27185080  0.26400019  0.03183708    -0.00100
C1613       C  0.24510832  0.27052450  0.03211867    -0.11800
C1614       C  0.23045904  0.27134435  0.00892734     0.02100
H1615       H  0.27930538  0.25502367  0.96588196     0.15100
H1616       H  0.23546682  0.27464945  0.05066025     0.15100
C1617       C  0.20311613  0.27875560  0.01105718     0.36700
C1618       C  0.31202365  0.25321987  0.00554536     0.36600
N1619       N  0.18125929  0.28483958  0.01288811    -0.43600
N1620       N  0.33416816  0.24821214  0.00394740    -0.43600
C1621       C  0.21350112  0.36720101  0.85992748     0.00000
C1622       C  0.21135386  0.34340475  0.84622322    -0.11900
C1623       C  0.20745281  0.31982716  0.85945334     0.02200
C1624       C  0.20522919  0.31968889  0.88703620    -0.00100
C1625       C  0.20579670  0.34347704  0.90080780    -0.11800
C1626       C  0.21011670  0.36719548  0.88756291     0.02100
H1627       H  0.21361735  0.34299966  0.82507857     0.15100
H1628       H  0.20383794  0.34341797  0.92198537     0.15100
C1629       C  0.21105916  0.39102596  0.90291252     0.36700
C1630       C  0.20573725  0.29596649  0.84415992     0.36600
N1631       N  0.21182788  0.41006050  0.91531599    -0.43600
N1632       N  0.20438003  0.27688996  0.83188044    -0.43600
C1633       C  0.34629654  0.35632644  0.80629406     0.00000
C1634       C  0.34907313  0.38048237  0.81938873    -0.11900
C1635       C  0.32771345  0.39768137  0.82225614     0.02200
C1636       C  0.30317231  0.39097878  0.81132258    -0.00100
C1637       C  0.30045395  0.36662403  0.79849020    -0.11800
C1638       C  0.32163998  0.34932172  0.79598001     0.02100
H1639       H  0.36811551  0.38605788  0.82714525     0.15100
H1640       H  0.28162331  0.36100871  0.79026448     0.15100
C1641       C  0.31791300  0.32530719  0.78133011     0.36700
C1642       C  0.33181739  0.42235207  0.83558138     0.36600
N1643       N  0.31493399  0.30613181  0.76950239    -0.43600
N1644       N  0.33513450  0.44211223  0.84629754    -0.43600
C1645       C  0.27118417  0.28321999  0.53587282     0.00000
C1646       C  0.24368241  0.28145456  0.53471326    -0.11900
C1647       C  0.23027912  0.28179241  0.51068559     0.02200
C1648       C  0.24444534  0.28403079  0.48681547    -0.00100
C1649       C  0.27198905  0.28505241  0.48794727    -0.11800
C1650       C  0.28539511  0.28461857  0.51196231     0.02100
H1651       H  0.23245216  0.28025863  0.55274734     0.15100
H1652       H  0.28320569  0.28669922  0.46994237     0.15100
C1653       C  0.31368752  0.28673296  0.51116926     0.36700
C1654       C  0.20191798  0.28096639  0.51151813     0.36600
N1655       N  0.33635274  0.28841972  0.51035102    -0.43600
N1656       N  0.17919570  0.28033352  0.51233592    -0.43600
C1657       C  0.37757834  0.30528103  0.71898896     0.00000
C1658       C  0.36257468  0.32676962  0.71044075    -0.11900
C1659       C  0.34661789  0.32482255  0.68817086     0.02200
C1660       C  0.34601765  0.30122358  0.67379658    -0.00100
C1661       C  0.36137691  0.27988068  0.68204281    -0.11800
C1662       C  0.37676549  0.28155350  0.70471703     0.02100
H1663       H  0.36280865  0.34493389  0.72158916     0.15100
H1664       H  0.36127814  0.26182340  0.67074782     0.15100
C1665       C  0.39201356  0.25893966  0.71252421     0.36700
C1666       C  0.33167433  0.34748779  0.68011293     0.36600
N1667       N  0.40421839  0.24079925  0.71873942    -0.43600
N1668       N  0.31980949  0.36583148  0.67389522    -0.43600
C1669       C  0.12252817  0.22154048  0.81401982     0.00000
C1670       C  0.12062906  0.24565928  0.82716686    -0.11900
C1671       C  0.13625954  0.25104143  0.84896783     0.02200
C1672       C  0.15416349  0.23196567  0.85808076    -0.00100
C1673       C  0.15576624  0.20758118  0.84536031    -0.11800
C1674       C  0.14006175  0.20220401  0.82341029     0.02100
H1675       H  0.10779480  0.26086930  0.81953705     0.15100
H1676       H  0.16955319  0.19291482  0.85234544     0.15100
C1677       C  0.14386879  0.17767251  0.80967148     0.36700
C1678       C  0.13512003  0.27706564  0.86026626     0.36600
N1679       N  0.14704995  0.15806266  0.79860867    -0.43600
N1680       N  0.13440375  0.29797021  0.86916308    -0.43600
C1681       C  0.20906444  0.14533427  0.71816368     0.00000
C1682       C  0.21107068  0.17135588  0.72714766    -0.11900
C1683       C  0.18880450  0.18688588  0.73118865     0.02200
C1684       C  0.16366614  0.17645892  0.72607418    -0.00100
C1685       C  0.16163549  0.15031997  0.71711908    -0.11800
C1686       C  0.18406041  0.13475230  0.71312307     0.02100
H1687       H  0.23027340  0.17968643  0.73112535     0.15100
H1688       H  0.14243862  0.14190460  0.71338867     0.15100
C1689       C  0.18083611  0.10772961  0.70522485     0.36700
C1690       C  0.19247555  0.21296009  0.74171927     0.36600
N1691       N  0.17827262  0.08601154  0.69907341    -0.43600
N1692       N  0.19550895  0.23379287  0.75026487    -0.43600
C1693       C  0.30286144  0.21756345  0.62983532     0.00000
C1694       C  0.32169223  0.21104963  0.64886212    -0.11900
C1695       C  0.31788839  0.18961808  0.66559192     0.02200
C1696       C  0.29525557  0.17393062  0.66273397    -0.00100
C1697       C  0.27722539  0.17969494  0.64267308    -0.11800
C1698       C  0.28061476  0.20155096  0.62659121     0.02100
H1699       H  0.33860717  0.22363726  0.65169161     0.15100
H1700       H  0.25987089  0.16761948  0.64016302     0.15100
C1701       C  0.26072075  0.20756880  0.60730182     0.36700
C1702       C  0.33737103  0.18425600  0.68546128     0.36600
N1703       N  0.24477899  0.21245266  0.59187508    -0.43600
N1704       N  0.35297945  0.18004100  0.70141688    -0.43600
C1705       C  0.77104762  0.27924059  0.99244137     0.00000
C1706       C  0.78565588  0.28165744  0.01576611    -0.11900
C1707       C  0.77324517  0.28282842  0.04037857     0.02200
C1708       C  0.74552605  0.28147324  0.04207847    -0.00100
C1709       C  0.73115667  0.27745308  0.01880154    -0.11800
C1710       C  0.74351190  0.27634487  0.99428570     0.02100
H1711       H  0.80685173  0.28361501  0.01476490     0.15100
H1712       H  0.70991655  0.27591849  0.01953808     0.15100
C1713       C  0.72730241  0.27214454  0.97141161     0.36700
C1714       C  0.78952954  0.28556855  0.06338451     0.36600
N1715       N  0.71428709  0.26873377  0.95311614    -0.43600
N1716       N  0.80265957  0.28768562  0.08179091    -0.43600
C1717       C  0.97922864  0.28212808  0.75110704     0.00000
C1718       C  0.97977741  0.25461779  0.75166783    -0.11900
C1719       C  0.00364491  0.24074706  0.75179586     0.02200
C1720       C  0.02789768  0.25446327  0.75103421    -0.00100
C1721       C  0.02730947  0.28197130  0.75105927    -0.11800
C1722       C  0.00351766  0.29582951  0.75115276     0.02100
H1723       H  0.96143926  0.24381266  0.75168416     0.15100
H1724       H  0.04560258  0.29284334  0.75053488     0.15100
C1725       C  0.00500883  0.32412391  0.75011768     0.36700
C1726       C  0.00232735  0.21244665  0.75184769     0.36600
N1727       N  0.00633763  0.34677615  0.74929173    -0.43600
N1728       N  0.00115751  0.18977053  0.75194209    -0.43600
C1729       C  0.87881570  0.31223204  0.81110373     0.00000
C1730       C  0.85487257  0.29844485  0.81042008    -0.11900
C1731       C  0.83967015  0.29501964  0.83293593     0.02200
C1732       C  0.84852608  0.30507248  0.85712218    -0.00100
C1733       C  0.87240764  0.31890811  0.85798453    -0.11800
C1734       C  0.88735683  0.32293984  0.83518713     0.02100
H1735       H  0.84774378  0.29038613  0.79205236     0.15100
H1736       H  0.87931217  0.32677061  0.87651915     0.15100
C1737       C  0.91144833  0.33767649  0.83723349     0.36700
C1738       C  0.81565435  0.28008802  0.83075551     0.36600
N1739       N  0.93069555  0.34960958  0.83893727    -0.43600
N1740       N  0.79646285  0.26807786  0.82894453    -0.43600
C1741       C  0.79241243  0.17234022  0.86602728     0.00000
C1742       C  0.81436607  0.18793905  0.86041196    -0.11900
C1743       C  0.81991574  0.21028795  0.87547886     0.02200
C1744       C  0.80294525  0.21761306  0.89615141    -0.00100
C1745       C  0.78116089  0.20194095  0.90191659    -0.11800
C1746       C  0.77597147  0.17924284  0.88736848     0.02100
H1747       H  0.82718885  0.18266524  0.84423213     0.15100
H1748       H  0.76779869  0.20783861  0.91744859     0.15100
C1749       C  0.75284944  0.16421872  0.89394571     0.36700
C1750       C  0.84233822  0.22610002  0.86848005     0.36600
N1751       N  0.73436963  0.15214572  0.89924853    -0.43600
N1752       N  0.86037824  0.23865186  0.86281961    -0.43600
C1753       C  0.77185047  0.26085881  0.49206964     0.00000
C1754       C  0.74428915  0.25942481  0.49230309    -0.11900
C1755       C  0.73015443  0.25843147  0.51588077     0.02200
C1756       C  0.74358756  0.25916782  0.54024732    -0.00100
C1757       C  0.77107868  0.26132231  0.54004190    -0.11800
C1758       C  0.78524238  0.26206829  0.51645873     0.02100
H1759       H  0.73364558  0.25831458  0.47391311     0.15100
H1760       H  0.78171346  0.26177660  0.55846638     0.15100
C1761       C  0.81356167  0.26269744  0.51824495     0.36700
C1762       C  0.70202896  0.25501295  0.51414658     0.36600
N1763       N  0.83624695  0.26307986  0.51985113    -0.43600
N1764       N  0.67952582  0.25212735  0.51260157    -0.43600
C1765       C  0.84808688  0.36615053  0.72461618     0.00000
C1766       C  0.83577341  0.36509061  0.70002977    -0.11900
C1767       C  0.81507351  0.38229741  0.69398106     0.02200
C1768       C  0.80637418  0.40063999  0.71291214    -0.00100
C1769       C  0.81901428  0.40184605  0.73728956    -0.11800
C1770       C  0.83974802  0.38494843  0.74323499     0.02100
H1771       H  0.84241737  0.35093580  0.68554161     0.15100
H1772       H  0.81198437  0.41545738  0.75213489     0.15100
C1773       C  0.85121127  0.38638726  0.76913400     0.36700
C1774       C  0.80212884  0.37970834  0.66892230     0.36600
N1775       N  0.86032615  0.38750170  0.78989463    -0.43600
N1776       N  0.79176099  0.37761147  0.64883445    -0.43600
C1777       C  0.71794770  0.36375126  0.66904544     0.00000
C1778       C  0.70725252  0.36399775  0.64354867    -0.11900
C1779       C  0.70377453  0.34061560  0.62923206     0.02200
C1780       C  0.71142950  0.31644440  0.64029891    -0.00100
C1781       C  0.72201747  0.31626862  0.66575284    -0.11800
C1782       C  0.72528789  0.33945112  0.68011086     0.02100
H1783       H  0.70180011  0.38254286  0.63467822     0.15100
H1784       H  0.72798293  0.29780821  0.67450309     0.15100
C1785       C  0.73767527  0.33773702  0.70553193     0.36700
C1786       C  0.69366297  0.34209582  0.60284008     0.36600
N1787       N  0.74771139  0.33634013  0.72584197    -0.43600
N1788       N  0.68566756  0.34329115  0.58163415    -0.43600
C1789       C  0.52649318  0.24737806  0.77051681     0.00000
C1790       C  0.52529263  0.27442754  0.76585734    -0.11900
C1791       C  0.50138979  0.28807188  0.76685986     0.02200
C1792       C  0.47779079  0.27463846  0.77313818    -0.00100
C1793       C  0.47885503  0.24731901  0.77651564    -0.11800
C1794       C  0.50274595  0.23362928  0.77513458     0.02100
H1795       H  0.54327882  0.28515694  0.76205681     0.15100
H1796       H  0.46102875  0.23660817  0.78101117     0.15100
C1797       C  0.50224499  0.20573731  0.78011736     0.36700
C1798       C  0.50220332  0.31601353  0.76229497     0.36600
N1799       N  0.50174508  0.18338945  0.78405800    -0.43600
N1800       N  0.50296963  0.33838866  0.75856397    -0.43600
C1801       C  0.63218177  0.21663652  0.71712547     0.00000
C1802       C  0.65826395  0.22520789  0.72000886    -0.11900
C1803       C  0.67451092  0.22913341  0.69829527     0.02200
C1804       C  0.66449782  0.22505269  0.67282323    -0.00100
C1805       C  0.63865387  0.21552480  0.66994933    -0.11800
C1806       C  0.62261336  0.21092029  0.69187655     0.02100
H1807       H  0.66594469  0.22918842  0.73945996     0.15100
H1808       H  0.63084746  0.21194168  0.65048386     0.15100
C1809       C  0.59617934  0.20153581  0.68791136     0.36700
C1810       C  0.70087853  0.23856470  0.70283395     0.36600
N1811       N  0.57500623  0.19392627  0.68473230    -0.43600
N1812       N  0.72201867  0.24603158  0.70654903    -0.43600
C1813       C  0.66045253  0.17346005  0.80890355     0.00000
C1814       C  0.65808948  0.14712238  0.81699570    -0.11900
C1815       C  0.68038905  0.13158254  0.82160082     0.02200
C1816       C  0.70546088  0.14241063  0.81776260    -0.00100
C1817       C  0.70777713  0.16901818  0.81102576    -0.11800
C1818       C  0.68567997  0.18457199  0.80658668     0.02100
H1819       H  0.63876288  0.13844469  0.81907766     0.15100
H1820       H  0.72712208  0.17757804  0.80846786     0.15100
C1821       C  0.68972971  0.21122513  0.79792127     0.36700
C1822       C  0.67703226  0.10437691  0.82858996     0.36600
N1823       N  0.69315755  0.23252694  0.79092361    -0.43600
N1824       N  0.67429217  0.08255811  0.83416576    -0.43600
C1825       C  0.24851350  0.99319895  0.25357010     0.00000
C1826       C  0.23929278  0.99474381  0.27952185    -0.11900
C1827       C  0.23940552  0.01853249  0.29340458     0.02200
C1828       C  0.24886180  0.04161101  0.28135382    -0.00100
C1829       C  0.25911630  0.03997403  0.25589916    -0.11800
C1830       C  0.25941652  0.01609485  0.24211845     0.02100
H1831       H  0.23088730  0.97754402  0.28873046     0.15100
H1832       H  0.26682904  0.05749703  0.24667252     0.15100
C1833       C  0.27111477  0.01591021  0.21631751     0.36700
C1834       C  0.22789257  0.01900736  0.31929731     0.36600
N1835       N  0.28063004  0.01585628  0.19570268    -0.43600
N1836       N  0.21857825  0.01933993  0.33999983    -0.43600
C1837       C  0.47529856  0.77517512  0.25157515     0.00000
C1838       C  0.47652881  0.74810473  0.24626136    -0.11900
C1839       C  0.50049508  0.73433647  0.24726114     0.02200
C1840       C  0.52401788  0.74767895  0.25374887    -0.00100
C1841       C  0.52265548  0.77438571  0.26003983    -0.11800
C1842       C  0.49885995  0.78815772  0.25911747     0.02100
H1843       H  0.45886774  0.73776107  0.24042068     0.15100
H1844       H  0.54051284  0.78480225  0.26517983     0.15100
C1845       C  0.49990510  0.81586646  0.26508846     0.36700
C1846       C  0.50050636  0.70698112  0.23979627     0.36600
N1847       N  0.50097588  0.83806410  0.26981135    -0.43600
N1848       N  0.50043486  0.68508277  0.23372395    -0.43600
C1849       C  0.34754089  0.86300085  0.21831993     0.00000
C1850       C  0.34393708  0.88462997  0.23515644    -0.11900
C1851       C  0.32256696  0.90157220  0.23219878     0.02200
C1852       C  0.30466915  0.89755895  0.21160629    -0.00100
C1853       C  0.30877112  0.87674457  0.19393784    -0.11800
C1854       C  0.32994042  0.85931020  0.19725237     0.02100
H1855       H  0.35736186  0.88780338  0.25137335     0.15100
H1856       H  0.29462523  0.87327223  0.17840725     0.15100
C1857       C  0.33314064  0.83795141  0.17887809     0.36700
C1858       C  0.31885388  0.92247496  0.25104881     0.36600
N1859       N  0.33570612  0.82082668  0.16414177    -0.43600
N1860       N  0.31577133  0.93918470  0.26615695    -0.43600
C1861       C  0.34235594  0.80763821  0.35161699     0.00000
C1862       C  0.33470515  0.79310030  0.32964642    -0.11900
C1863       C  0.34970266  0.79323368  0.30666335     0.02200
C1864       C  0.37283422  0.80877429  0.30509021    -0.00100
C1865       C  0.38012282  0.82378485  0.32705997    -0.11800
C1866       C  0.36531678  0.82310872  0.35026220     0.02100
H1867       H  0.31732652  0.78084330  0.33073124     0.15100
H1868       H  0.39751812  0.83600182  0.32620599     0.15100
C1869       C  0.37378516  0.83890442  0.37222372     0.36700
C1870       C  0.34046771  0.77721267  0.28515516     0.36600
N1871       N  0.38055254  0.85156206  0.38983130    -0.43600
N1872       N  0.33300099  0.76424063  0.26806249    -0.43600
C1873       C  0.20481983  0.81937500  0.13736782     0.00000
C1874       C  0.20029431  0.84411393  0.12640748    -0.11900
C1875       C  0.20401893  0.86694009  0.14141226     0.02200
C1876       C  0.21237015  0.86501277  0.16791190    -0.00100
C1877       C  0.21530128  0.84015261  0.17910308    -0.11800
C1878       C  0.21155839  0.81750888  0.16424921     0.02100
H1879       H  0.19455793  0.84563441  0.10598856     0.15100
H1880       H  0.22118291  0.83830153  0.19946001     0.15100
C1881       C  0.21441530  0.79254641  0.17739054     0.36700
C1882       C  0.19877791  0.89191475  0.12914980     0.36600
N1883       N  0.21670558  0.77261193  0.18797447    -0.43600
N1884       N  0.19447321  0.91190467  0.11930791    -0.43600
C1885       C  0.26741820  0.55035741  0.26628247     0.00000
C1886       C  0.27897085  0.54837089  0.24132109    -0.11900
C1887       C  0.27956645  0.52440671  0.22769266     0.02200
C1888       C  0.26879438  0.50159259  0.23916107    -0.00100
C1889       C  0.25635086  0.50366283  0.26354664    -0.11800
C1890       C  0.25504768  0.52774836  0.27687510     0.02100
H1891       H  0.28844570  0.56534908  0.23275892     0.15100
H1892       H  0.24751210  0.48637161  0.27218950     0.15100
C1893       C  0.24058074  0.52849468  0.30123683     0.36700
C1894       C  0.29276007  0.52346998  0.20262521     0.36600
N1895       N  0.22881890  0.52904962  0.32065801    -0.43600
N1896       N  0.30327641  0.52273022  0.18251456    -0.43600
C1897       C  0.29382976  0.67724412  0.35736081     0.00000
C1898       C  0.31763904  0.69106383  0.35702095    -0.11900
C1899       C  0.32167756  0.71250813  0.37391306     0.02200
C1900       C  0.30139999  0.72065896  0.39108554    -0.00100
C1901       C  0.27791859  0.70635751  0.39180944    -0.11800
C1902       C  0.27407195  0.68471492  0.37539612     0.02100
H1903       H  0.33302502  0.68516252  0.34349922     0.15100
H1904       H  0.26208955  0.71275605  0.40459863     0.15100
C1905       C  0.24897880  0.67151679  0.37636385     0.36700
C1906       C  0.34607924  0.72677923  0.37205317     0.36600
N1907       N  0.22886522  0.66099622  0.37715237    -0.43600
N1908       N  0.36565731  0.73818987  0.37058186    -0.43600
C1909       C  0.97926953  0.78772254  0.27578881     0.00000
C1910       C  0.98044706  0.76178168  0.28504495    -0.11900
C1911       C  0.00403858  0.74745786  0.28478233     0.02200
C1912       C  0.02728156  0.75887672  0.27481396    -0.00100
C1913       C  0.02616945  0.78458177  0.26516809    -0.11800
C1914       C  0.00258271  0.79896819  0.26537932     0.02100
H1915       H  0.96306805  0.75286789  0.29347127     0.15100
H1916       H  0.04388435  0.79353072  0.25748174     0.15100
C1917       C  0.00323520  0.82524698  0.25486643     0.36700
C1918       C  0.00418225  0.72177820  0.29669628     0.36600
N1919       N  0.00391046  0.84629192  0.24642058    -0.43600
N1920       N  0.00427310  0.70129377  0.30643252    -0.43600
C1921       C  0.11999744  0.72454630  0.20720799     0.00000
C1922       C  0.11755759  0.74810860  0.19329475    -0.11900
C1923       C  0.13285490  0.75288830  0.17103087     0.02200
C1924       C  0.15183612  0.73425440  0.16292098    -0.00100
C1925       C  0.15372319  0.71030808  0.17629533    -0.11800
C1926       C  0.13758618  0.70510642  0.19799287     0.02100
H1927       H  0.10423446  0.76319715  0.20038045     0.15100
H1928       H  0.16781928  0.69567635  0.16979167     0.15100
C1929       C  0.14050894  0.68031483  0.21131913     0.36700
C1930       C  0.12961628  0.77767968  0.15770906     0.36600
N1931       N  0.14277592  0.66038763  0.22191614    -0.43600
N1932       N  0.12691678  0.79747708  0.14696315    -0.43600
C1933       C  0.20875102  0.64824784  0.30045706     0.00000
C1934       C  0.20778133  0.66863678  0.28179306    -0.11900
C1935       C  0.18530077  0.68403447  0.27838533     0.02200
C1936       C  0.16265805  0.67884997  0.29326404    -0.00100
C1937       C  0.16317467  0.65837417  0.31167043    -0.11800
C1938       C  0.18609368  0.64345143  0.31580219     0.02100
H1939       H  0.22487320  0.67303342  0.26990637     0.15100
H1940       H  0.14577411  0.65444241  0.32329457     0.15100
C1941       C  0.18580505  0.62391687  0.33622539     0.36700
C1942       C  0.18583309  0.70464964  0.25898890     0.36600
N1943       N  0.18553198  0.60847483  0.35281934    -0.43600
N1944       N  0.18635490  0.72117643  0.24348055    -0.43600
C1945       C  0.26743153  0.99732672  0.77718766     0.00000
C1946       C  0.26804417  0.99686732  0.74969549    -0.11900
C1947       C  0.26790310  0.02007756  0.73511558     0.02200
C1948       C  0.26698161  0.04474325  0.74807374    -0.00100
C1949       C  0.26542309  0.04522751  0.77551106    -0.11800
C1950       C  0.26558841  0.02198084  0.79011399     0.02100
H1951       H  0.26946450  0.97824442  0.73943577     0.15100
H1952       H  0.26465260  0.06392293  0.78570642     0.15100
C1953       C  0.26504302  0.02442979  0.81833071     0.36700
C1954       C  0.27032815  0.01767380  0.70697397     0.36600
N1955       N  0.26463260  0.02656700  0.84092560    -0.43600
N1956       N  0.27234894  0.01560836  0.68445678    -0.43600
C1957       C  0.16588313  0.86700332  0.80640221     0.00000
C1958       C  0.19010804  0.85500888  0.80133024    -0.11900
C1959       C  0.21347341  0.86899726  0.80390251     0.02200
C1960       C  0.21288724  0.89566844  0.81175285    -0.00100
C1961       C  0.18883259  0.90727722  0.81842692    -0.11800
C1962       C  0.16534048  0.89322297  0.81575555     0.02100
H1963       H  0.19079527  0.83482115  0.79454904     0.15100
H1964       H  0.18832974  0.92749807  0.82510010     0.15100
C1965       C  0.14109570  0.90606022  0.82314984     0.36700
C1966       C  0.23779601  0.85519022  0.79878536     0.36600
N1967       N  0.12168297  0.91632304  0.82916119    -0.43600
N1968       N  0.25717348  0.84397930  0.79466824    -0.43600
C1969       C  0.26865354  0.76398095  0.98727863     0.00000
C1970       C  0.28247042  0.76184170  0.01110896    -0.11900
C1971       C  0.26946170  0.76160495  0.03530593     0.02200
C1972       C  0.24177573  0.76363919  0.03623422    -0.00100
C1973       C  0.22804914  0.76716738  0.01244104    -0.11800
C1974       C  0.24112872  0.76732666  0.98818522     0.02100
H1975       H  0.30365620  0.75945387  0.01091608     0.15100
H1976       H  0.20682672  0.76912202  0.01261527     0.15100
C1977       C  0.22578844  0.77118059  0.96468928     0.36700
C1978       C  0.28523495  0.75896782  0.05868530     0.36600
N1979       N  0.21344548  0.77439986  0.94590734    -0.43600
N1980       N  0.29800922  0.75686761  0.07733703    -0.43600
C1981       C  0.30695308  0.81973171  0.88775009     0.00000
C1982       C  0.30556723  0.84369127  0.90103876    -0.11900
C1983       C  0.30266991  0.86718886  0.88716455     0.02200
C1984       C  0.30132015  0.86680143  0.85933647    -0.00100
C1985       C  0.30440900  0.84278622  0.84617119    -0.11800
C1986       C  0.30710686  0.81937897  0.86007088     0.02100
H1987       H  0.30595583  0.84396582  0.92230613     0.15100
H1988       H  0.30408091  0.84212297  0.82492745     0.15100
C1989       C  0.31051202  0.79528410  0.84541583     0.36700
C1990       C  0.30115844  0.89121376  0.90217474     0.36600
N1991       N  0.31335809  0.77608411  0.83356943    -0.43600
N1992       N  0.29996094  0.91041860  0.91428308    -0.43600
C1993       C  0.35836604  0.73151535  0.86142728     0.00000
C1994       C  0.37843309  0.74939559  0.85540360    -0.11900
C1995       C  0.39507969  0.74518718  0.83401767     0.02200
C1996       C  0.39229057  0.72234506  0.81869893    -0.00100
C1997       C  0.37315517  0.70376207  0.82545724    -0.11800
C1998       C  0.35597889  0.70830932  0.84648385     0.02100
H1999       H  0.38055329  0.76719233  0.86692249     0.15100
H2000       H  0.37063358  0.68639949  0.81336886     0.15100
C2001       C  0.33623501  0.68889925  0.85234748     0.36700
C2002       C  0.41462272  0.76474871  0.82788007     0.36600
N2003       N  0.32040657  0.67333870  0.85704932    -0.43600
N2004       N  0.43028677  0.78040113  0.82293830    -0.43600
C2005       C  0.24986741  0.54521062  0.75094780     0.00000
C2006       C  0.25468913  0.54484307  0.77801498    -0.11900
C2007       C  0.25597292  0.52115459  0.79191340     0.02200
C2008       C  0.25212570  0.49690439  0.77868503    -0.00100
C2009       C  0.24831030  0.49733055  0.75139481    -0.11800
C2010       C  0.24708443  0.52100804  0.73753385     0.02100
H2011       H  0.25699695  0.56323688  0.78850939     0.15100
H2012       H  0.24520683  0.47908804  0.74085647     0.15100
C2013       C  0.24104171  0.51973575  0.70987881     0.36700
C2014       C  0.26013530  0.52274309  0.81988300     0.36600
N2015       N  0.23608678  0.51862618  0.68775676    -0.43600
N2016       N  0.26345492  0.52417001  0.84229097    -0.43600
C2017       C  0.30708228  0.64530945  0.72451844     0.00000
C2018       C  0.30713980  0.66696661  0.74173334    -0.11900
C2019       C  0.32961693  0.68206173  0.74553296     0.02200
C2020       C  0.35297729  0.67527001  0.73244264    -0.00100
C2021       C  0.35335435  0.65333640  0.71568634    -0.11800
C2022       C  0.33055778  0.63852768  0.71132403     0.02100
H2023       H  0.28937848  0.67247463  0.75215408     0.15100
H2024       H  0.37145579  0.64794707  0.70577690     0.15100
C2025       C  0.33205395  0.61634064  0.69372687     0.36700
C2026       C  0.32838721  0.70382271  0.76372935     0.36600
N2027       N  0.33335760  0.59858879  0.67958040    -0.43600
N2028       N  0.32733021  0.72122967  0.77831411    -0.43600
C2029       C  0.26645352  0.78072066  0.48766977     0.00000
C2030       C  0.28175484  0.78327278  0.51052708    -0.11900
C2031       C  0.27036951  0.78269132  0.53559747     0.02200
C2032       C  0.24285903  0.77975190  0.53837474    -0.00100
C2033       C  0.22782926  0.77545121  0.51551922    -0.11800
C2034       C  0.23931025  0.77574141  0.49045914     0.02100
H2035       H  0.30274738  0.78651043  0.50885987     0.15100
H2036       H  0.20680082  0.77244075  0.51707513     0.15100
C2037       C  0.22284386  0.77028038  0.46805549     0.36700
C2038       C  0.28755350  0.78529328  0.55796884     0.36600
N2039       N  0.20970284  0.76565434  0.45011852    -0.43600
N2040       N  0.30139341  0.78724633  0.57586853    -0.43600
C2041       C  0.21188854  0.72406794  0.64126749     0.00000
C2042       C  0.22720317  0.72522727  0.66427559    -0.11900
C2043       C  0.23067997  0.70333891  0.68032208     0.02200
C2044       C  0.21907234  0.67930172  0.67338464    -0.00100
C2045       C  0.20342036  0.67796291  0.65068523    -0.11800
C2046       C  0.19930428  0.70019569  0.63490029     0.02100
H2047       H  0.23660232  0.74345259  0.66995571     0.15100
H2048       H  0.19434434  0.65947786  0.64531787     0.15100
C2049       C  0.18242205  0.69776906  0.61230459     0.36700
C2050       C  0.24734309  0.70586731  0.70310255     0.36600
N2051       N  0.16871374  0.69575438  0.59431140    -0.43600
N2052       N  0.26073306  0.70816438  0.72128966    -0.43600
C2053       C  0.16125506  0.81089051  0.67044180     0.00000
C2054       C  0.16110135  0.83595182  0.68193297    -0.11900
C2055       C  0.14552545  0.84122428  0.70410708     0.02200
C2056       C  0.13008132  0.82106081  0.71512672    -0.00100
C2057       C  0.13018421  0.79613932  0.70337843    -0.11800
C2058       C  0.14546183  0.79094700  0.68122754     0.02100
H2059       H  0.17314089  0.85135344  0.67360063     0.15100
H2060       H  0.11881690  0.78039388  0.71203712     0.15100
C2061       C  0.14576702  0.76453278  0.67082274     0.36700
C2062       C  0.14696526  0.86687507  0.71609465     0.36600
N2063       N  0.14612558  0.74336073  0.66256512    -0.43600
N2064       N  0.14813564  0.88740018  0.72578225    -0.43600
C2065       C  0.76086910  0.99622612  0.74984833     0.00000
C2066       C  0.76459106  0.99477019  0.77709673    -0.11900
C2067       C  0.76496433  0.01743853  0.79274784     0.02200
C2068       C  0.76171312  0.04249956  0.78113678    -0.00100
C2069       C  0.75652041  0.04386412  0.75419740    -0.11800
C2070       C  0.75583862  0.02121609  0.73858528     0.02100
H2071       H  0.76823657  0.97589452  0.78618611     0.15100
H2072       H  0.75352199  0.06285659  0.74510235     0.15100
C2073       C  0.75091764  0.02472717  0.71092597     0.36700
C2074       C  0.77031934  0.01423405  0.82037390     0.36600
N2075       N  0.74695892  0.02771631  0.68878791    -0.43600
N2076       N  0.77460384  0.01152622  0.84248962    -0.43600
C2077       C  0.77395745  0.76228607  0.53390566     0.00000
C2078       C  0.78833593  0.75676197  0.51095217    -0.11900
C2079       C  0.77610806  0.75595669  0.48624464     0.02200
C2080       C  0.74880516  0.76092500  0.48407058    -0.00100
C2081       C  0.73490552  0.76803353  0.50696083    -0.11800
C2082       C  0.74708340  0.76868804  0.53157270     0.02100
H2083       H  0.80909134  0.75207844  0.51239028     0.15100
H2084       H  0.71408533  0.77248179  0.50588095     0.15100
C2085       C  0.73148213  0.77626205  0.55403196     0.36700
C2086       C  0.79208622  0.74940965  0.46376328     0.36600
N2087       N  0.71897103  0.78239707  0.57199476    -0.43600
N2088       N  0.80503746  0.74418659  0.44582647    -0.43600
C2089       C  0.80570787  0.82735394  0.62735354     0.00000
C2090       C  0.78238935  0.84176999  0.62458594    -0.11900
C2091       C  0.77819227  0.86474520  0.63906602     0.02200
C2092       C  0.79737008  0.87329576  0.65722398    -0.00100
C2093       C  0.82095015  0.85922686  0.65958683    -0.11800
C2094       C  0.82538131  0.83653558  0.64460913     0.02100
H2095       H  0.76702928  0.83453814  0.61172297     0.15100
H2096       H  0.83572156  0.86572766  0.67347413     0.15100
C2097       C  0.84938620  0.82196431  0.64878305     0.36700
C2098       C  0.75324308  0.87808793  0.63627867     0.36600
N2099       N  0.86860132  0.81025375  0.65214707    -0.43600
N2100       N  0.73326460  0.88876806  0.63407521    -0.43600
C2101       C  0.74653665  0.78407912  0.98795248     0.00000
C2102       C  0.77408618  0.78303988  0.98917682    -0.11900
C2103       C  0.78746018  0.78270923  0.01327043     0.02200
C2104       C  0.77326531  0.78362523  0.03724976    -0.00100
C2105       C  0.74566547  0.78377223  0.03601567    -0.11800
C2106       C  0.73228674  0.78389049  0.01189708     0.02100
H2107       H  0.78538111  0.78296388  0.97113710     0.15100
H2108       H  0.73436306  0.78438483  0.05403895     0.15100
C2109       C  0.70392686  0.78500006  0.01262818     0.36700
C2110       C  0.81582583  0.78256927  0.01242058     0.36600
N2111       N  0.68120439  0.78587659  0.01334951    -0.43600
N2112       N  0.83855632  0.78246968  0.01156761    -0.43600
C2113       C  0.53696364  0.78020945  0.75190192     0.00000
C2114       C  0.53658204  0.75311842  0.75670942    -0.11900
C2115       C  0.51278339  0.73934989  0.75855802     0.02200
C2116       C  0.48850439  0.75275395  0.75535040    -0.00100
C2117       C  0.48898503  0.78000226  0.75142579    -0.11800
C2118       C  0.51268216  0.79371738  0.74956887     0.02100
H2119       H  0.55499936  0.74252751  0.75861440     0.15100
H2120       H  0.47069657  0.79068276  0.74889698     0.15100
C2121       C  0.51118235  0.82136458  0.74348855     0.36700
C2122       C  0.51420791  0.71138470  0.76282223     0.36600
N2123       N  0.50981658  0.84346959  0.73850736    -0.43600
N2124       N  0.51549591  0.68897642  0.76624240    -0.43600
C2125       C  0.67130793  0.80948644  0.85083384     0.00000
C2126       C  0.64617395  0.82110601  0.85212991    -0.11900
C2127       C  0.63038964  0.82355415  0.82969636     0.02200
C2128       C  0.63963900  0.81400273  0.80544212    -0.00100
C2129       C  0.66492397  0.80282664  0.80411451    -0.11800
C2130       C  0.68074530  0.80053606  0.82639585     0.02100
H2131       H  0.63865142  0.82794866  0.87084467     0.15100
H2132       H  0.67237065  0.79561706  0.78549650     0.15100
C2133       C  0.70585035  0.78748401  0.82378392     0.36700
C2134       C  0.60436088  0.83456114  0.83238459     0.36600
N2135       N  0.72590072  0.77691515  0.82165477    -0.43600
N2136       N  0.58344735  0.84327415  0.83458634    -0.43600
C2137       C  0.66790926  0.86001343  0.71444414     0.00000
C2138       C  0.66414086  0.88617407  0.70627731    -0.11900
C2139       C  0.68549429  0.90312745  0.70266257     0.02200
C2140       C  0.71110746  0.89402121  0.70772217    -0.00100
C2141       C  0.71493191  0.86753403  0.71444369    -0.11800
C2142       C  0.69373909  0.85050104  0.71768122     0.02100
H2143       H  0.64437599  0.89362357  0.70334124     0.15100
H2144       H  0.73468931  0.86017631  0.71773357     0.15100
C2145       C  0.69917187  0.82392023  0.72586396     0.36700
C2146       C  0.68048221  0.92998900  0.69526203     0.36600
N2147       N  0.70361402  0.80264115  0.73241396    -0.43600
N2148       N  0.67641867  0.95151594  0.68930746    -0.43600
C2149       C  0.98228840  0.76642147  0.76982162     0.00000
C2150       C  0.00542500  0.75176478  0.76557114    -0.11900
C2151       C  0.03020369  0.76362711  0.76609705     0.02200
C2152       C  0.03228587  0.79079048  0.77102547    -0.00100
C2153       C  0.00911659  0.80579940  0.77301505    -0.11800
C2154       C  0.98430163  0.79396678  0.77238424     0.02100
H2155       H  0.00434813  0.73069038  0.76281588     0.15100
H2156       H  0.01033874  0.82682104  0.77613224     0.15100
C2157       C  0.96143048  0.81065339  0.77466940     0.36700
C2158       C  0.05305936  0.74741420  0.76142137     0.36600
N2159       N  0.94315877  0.82412169  0.77639278    -0.43600
N2160       N  0.07133796  0.73441308  0.75752855    -0.43600
C2161       C  0.84949222  0.74102071  0.67091633     0.00000
C2162       C  0.87218552  0.72530169  0.67037156    -0.11900
C2163       C  0.88759872  0.72181725  0.69284577     0.02200
C2164       C  0.88069054  0.73482469  0.71637815    -0.00100
C2165       C  0.85790806  0.75062163  0.71675798    -0.11800
C2166       C  0.84225897  0.75365039  0.69442246     0.02100
H2167       H  0.87783811  0.71558036  0.65226884     0.15100
H2168       H  0.85208598  0.76057314  0.73466974     0.15100
C2169       C  0.81958347  0.77072214  0.69587265     0.36700
C2170       C  0.91047964  0.70511696  0.69091327     0.36600
N2171       N  0.80145576  0.78444148  0.69704596    -0.43600
N2172       N  0.92873821  0.69162140  0.68928451    -0.43600
C2173       C  0.75246653  0.55048670  0.76770340     0.00000
C2174       C  0.75927350  0.52726162  0.78109476    -0.11900
C2175       C  0.75878643  0.50269557  0.76861818     0.02200
C2176       C  0.75114028  0.50071784  0.74209726    -0.00100
C2177       C  0.74638536  0.52399072  0.72808148    -0.11800
C2178       C  0.74705876  0.54867332  0.74049829     0.02100
H2179       H  0.76436253  0.52807781  0.80172156     0.15100
H2180       H  0.74106934  0.52286332  0.70751818     0.15100
C2181       C  0.74161131  0.57156921  0.72479450     0.36700
C2182       C  0.76670669  0.47987968  0.78340861     0.36600
N2183       N  0.73736078  0.58987003  0.71207939    -0.43600
N2184       N  0.77328133  0.46162214  0.79517619    -0.43600
C2185       C  0.80801468  0.65085998  0.80841516     0.00000
C2186       C  0.83265872  0.63903479  0.81166968    -0.11900
C2187       C  0.85568757  0.65398807  0.80971806     0.02200
C2188       C  0.85404273  0.68128283  0.80462094    -0.00100
C2189       C  0.82929132  0.69324250  0.80334283    -0.11800
C2190       C  0.80641397  0.67838325  0.80518623     0.02100
H2191       H  0.83394156  0.61805422  0.81495390     0.15100
H2192       H  0.82773468  0.71419642  0.79995882     0.15100
C2193       C  0.78151233  0.69207098  0.80407448     0.36700
C2194       C  0.88062789  0.64087980  0.81328316     0.36600
N2195       N  0.76166046  0.70317270  0.80323409    -0.43600
N2196       N  0.90061741  0.63040481  0.81621797    -0.43600
C2197       C  0.72260065  0.67725256  0.85844189     0.00000
C2198       C  0.74289628  0.68520662  0.87527482    -0.11900
C2199       C  0.74017905  0.70754370  0.89107796     0.02200
C2200       C  0.71644393  0.72196424  0.89082561    -0.00100
C2201       C  0.69562435  0.71323007  0.87494194    -0.11800
C2202       C  0.69864173  0.69120604  0.85857183     0.02100
H2203       H  0.76131013  0.67442070  0.87540621     0.15100
H2204       H  0.67744247  0.72436791  0.87433882     0.15100
C2205       C  0.67689339  0.68309058  0.84231491     0.36700
C2206       C  0.76215866  0.71545563  0.90716349     0.36600
N2207       N  0.65950387  0.67644039  0.82929467    -0.43600
N2208       N  0.77976914  0.72187504  0.92000363    -0.43600
C2209       C  0.90564951  0.97207421  0.69126252     0.00000
C2210       C  0.89602258  0.96640095  0.71626723    -0.11900
C2211       C  0.86911383  0.96282055  0.72038562     0.02200
C2212       C  0.85143781  0.96393205  0.69889081    -0.00100
C2213       C  0.86097490  0.97135729  0.67422439    -0.11800
C2214       C  0.88784133  0.97553704  0.67027476     0.02100
H2215       H  0.90958779  0.96463277  0.73258017     0.15100
H2216       H  0.84768050  0.97245716  0.65764134     0.15100
C2217       C  0.89679728  0.98140825  0.64405765     0.36700
C2218       C  0.86031999  0.95806839  0.74689463     0.36600
N2219       N  0.90400954  0.98607966  0.62306503    -0.43600
N2220       N  0.85330348  0.95437602  0.76815257    -0.43600
C2221       C  0.18387791  0.92345046  0.57731233     0.00000
C2222       C  0.16708632  0.90509664  0.56524622    -0.11900
C2223       C  0.17103901  0.87806411  0.56810345     0.02200
C2224       C  0.19240049  0.86885312  0.58316761    -0.00100
C2225       C  0.20979224  0.88733193  0.59427429    -0.11800
C2226       C  0.20567909  0.91429962  0.59161795     0.02100
H2227       H  0.15027561  0.91186610  0.55404983     0.15100
H2228       H  0.22649730  0.88080127  0.60574938     0.15100
C2229       C  0.22431324  0.93199193  0.60359552     0.36700
C2230       C  0.15264859  0.86050269  0.55559859     0.36600
N2231       N  0.23926828  0.94612495  0.61321197    -0.43600
N2232       N  0.13782858  0.84653916  0.54553318    -0.43600
C2233       C  0.05691590  0.97577073  0.65038405     0.00000
C2234       C  0.06257485  0.95738707  0.63058896    -0.11900
C2235       C  0.08413405  0.96092900  0.61378864     0.02200
C2236       C  0.10056960  0.98296128  0.61708114    -0.00100
C2237       C  0.09566533  0.00044385  0.63785788    -0.11800
C2238       C  0.07387567  0.99723589  0.65419311     0.02100
H2239       H  0.04928933  0.94109637  0.62728006     0.15100
H2240       H  0.10835769  0.01728052  0.64073758     0.15100
C2241       C  0.06883582  0.01661504  0.67431670     0.36700
C2242       C  0.08906215  0.94170550  0.59351764     0.36600
N2243       N  0.06467751  0.03211715  0.69042304    -0.43600
N2244       N  0.09309014  0.92628630  0.57729723    -0.43600
C2245       C  0.06917121  0.20597949  0.60980636     0.00000
C2246       C  0.09336365  0.21622031  0.61808353    -0.11900
C2247       C  0.09899603  0.21925277  0.64470636     0.02200
C2248       C  0.08014016  0.21190284  0.66368044    -0.00100
C2249       C  0.05562808  0.20269292  0.65553480    -0.11800
C2250       C  0.04981490  0.19995745  0.62893261     0.02100
H2251       H  0.10840096  0.22094296  0.60379054     0.15100
H2252       H  0.04090273  0.19763909  0.67005534     0.15100
C2253       C  0.02386118  0.19067676  0.62222087     0.36700
C2254       C  0.12485923  0.22849033  0.65187675     0.36600
N2255       N  0.00302880  0.18324160  0.61700791    -0.43600
N2256       N  0.14559356  0.23587675  0.65753631    -0.43600
C2257       C  0.13206337  0.07140792  0.56726654     0.00000
C2258       C  0.10472214  0.07137588  0.57048155    -0.11900
C2259       C  0.08974988  0.09396212  0.56600183     0.02200
C2260       C  0.10216360  0.11719988  0.55726560    -0.00100
C2261       C  0.12987423  0.11739968  0.55530427    -0.11800
C2262       C  0.14483202  0.09479154  0.56039507     0.02100
H2263       H  0.09492546  0.05332223  0.57602777     0.15100
H2264       H  0.13994028  0.13506515  0.54915625     0.15100
C2265       C  0.17300552  0.09562477  0.55717017     0.36700
C2266       C  0.06174600  0.09226025  0.57021959     0.36600
N2267       N  0.19560189  0.09622635  0.55465739    -0.43600
N2268       N  0.03932572  0.09074007  0.57371369    -0.43600
C2269       C  0.94805442  0.84452861  0.41862914     0.00000
C2270       C  0.96390988  0.85671511  0.39953981    -0.11900
C2271       C  0.95854698  0.85418700  0.37274062     0.02200
C2272       C  0.93701895  0.83895623  0.36444481    -0.00100
C2273       C  0.92175557  0.82599822  0.38344321    -0.11800
C2274       C  0.92696562  0.82864423  0.41022358     0.02100
H2275       H  0.98028306  0.86892703  0.40550427     0.15100
H2276       H  0.90518007  0.81407773  0.37741691     0.15100
C2277       C  0.91010213  0.81495620  0.42838381     0.36700
C2278       C  0.97564588  0.86722546  0.35434744     0.36600
N2279       N  0.89650967  0.80394935  0.44282754    -0.43600
N2280       N  0.98941397  0.87769645  0.33967549    -0.43600
C2281       C  0.96558712  0.90384776  0.56300458     0.00000
C2282       C  0.97357739  0.93019165  0.56125031    -0.11900
C2283       C  0.97533819  0.94620982  0.58355111     0.02200
C2284       C  0.96910242  0.93587296  0.60844481    -0.00100
C2285       C  0.96083946  0.90950785  0.61008148    -0.11800
C2286       C  0.95905749  0.89353721  0.58771653     0.02100
H2287       H  0.97850206  0.93836084  0.54225427     0.15100
H2288       H  0.95619518  0.90109327  0.62902567     0.15100
C2289       C  0.95207372  0.86629014  0.59086240     0.36700
C2290       C  0.98470848  0.97271970  0.58028266     0.36600
N2291       N  0.94670039  0.84439507  0.59342293    -0.43600
N2292       N  0.99228928  0.99393602  0.57760754    -0.43600
C2293       C  0.82554860  0.12017453  0.44757861     0.00000
C2294       C  0.83688152  0.13831896  0.46516165    -0.11900
C2295       C  0.83374601  0.16532662  0.46196614     0.02200
C2296       C  0.81889303  0.17492571  0.44074560    -0.00100
C2297       C  0.80675155  0.15687143  0.42365229    -0.11800
C2298       C  0.80993398  0.12975138  0.42683749     0.02100
H2299       H  0.84880565  0.13149839  0.48140395     0.15100
H2300       H  0.79507340  0.16394478  0.40733740     0.15100
C2301       C  0.79692315  0.11244702  0.40855433     0.36700
C2302       C  0.84570068  0.18253481  0.48107714     0.36600
N2303       N  0.78639700  0.09865627  0.39388950    -0.43600
N2304       N  0.85526998  0.19622459  0.49647415    -0.43600
C2305       C  0.91723790  0.93135140  0.47209915     0.00000
C2306       C  0.92763114  0.95607534  0.47766898    -0.11900
C2307       C  0.91274508  0.97869629  0.47367644     0.02200
C2308       C  0.88664231  0.97681053  0.46410579    -0.00100
C2309       C  0.87683444  0.95218795  0.45678396    -0.11800
C2310       C  0.89196801  0.92945014  0.46066465     0.02100
H2311       H  0.94724700  0.95771464  0.48585453     0.15100
H2312       H  0.85722792  0.95065249  0.44860295     0.15100
C2313       C  0.88158968  0.90456553  0.45194613     0.36700
C2314       C  0.92513504  0.00364329  0.47906700     0.36600
N2315       N  0.87345438  0.88463741  0.44470338    -0.43600
N2316       N  0.93516219  0.02356532  0.48331204    -0.43600
C2317       C  0.16203676  0.09450120  0.32612257     0.00000
C2318       C  0.15323274  0.06936409  0.33265026    -0.11900
C2319       C  0.12630986  0.06411803  0.33510611     0.02200
C2320       C  0.10761414  0.08456553  0.33166082    -0.00100
C2321       C  0.11660727  0.10962316  0.32475225    -0.11800
C2322       C  0.14344606  0.11471705  0.32194585     0.02100
H2323       H  0.16741276  0.05367172  0.33537141     0.15100
H2324       H  0.10270175  0.12560547  0.32236684     0.15100
C2325       C  0.15142165  0.14126413  0.31610321     0.36700
C2326       C  0.11862077  0.03743919  0.34063362     0.36600
N2327       N  0.15784329  0.16253029  0.31151273    -0.43600
N2328       N  0.11254745  0.01601003  0.34494339    -0.43600
C2329       C  0.91455884  0.06438278  0.41611896     0.00000
C2330       C  0.91844338  0.05061881  0.39242036    -0.11900
C2331       C  0.94081139  0.05466906  0.37700054     0.02200
C2332       C  0.95958806  0.07333652  0.38468166    -0.00100
C2333       C  0.95562000  0.08766490  0.40793219    -0.11800
C2334       C  0.93343938  0.08322633  0.42378066     0.02100
H2335       H  0.90430616  0.03597668  0.38620896     0.15100
H2336       H  0.97041555  0.10161127  0.41424108     0.15100
C2337       C  0.93063160  0.09822082  0.44767225     0.36700
C2338       C  0.94446778  0.03899512  0.35363873     0.36600
N2339       N  0.92842316  0.11020858  0.46685603    -0.43600
N2340       N  0.94752376  0.02643847  0.33494124    -0.43600
C2341       C  0.05146864  0.11815832  0.41814588     0.00000
C2342       C  0.04790562  0.10589933  0.44239657    -0.11900
C2343       C  0.05096824  0.11983031  0.46574386     0.02200
C2344       C  0.05785330  0.14669118  0.46518322    -0.00100
C2345       C  0.06310071  0.15865177  0.44107383    -0.11800
C2346       C  0.05987931  0.14466693  0.41755782     0.02100
H2347       H  0.04188460  0.08551087  0.44317213     0.15100
H2348       H  0.06893375  0.17909712  0.44057205     0.15100
C2349       C  0.06564588  0.15792727  0.39324871     0.36700
C2350       C  0.04722862  0.10582143  0.49003705     0.36600
N2351       N  0.07035166  0.16856498  0.37379173    -0.43600
N2352       N  0.04421680  0.09435814  0.50934438    -0.43600
C2353       C  0.90619549  0.08154223  0.83804871     0.00000
C2354       C  0.88793992  0.06628953  0.85213404    -0.11900
C2355       C  0.86095230  0.06913732  0.84846237     0.02200
C2356       C  0.85156146  0.08755761  0.83019982    -0.00100
C2357       C  0.86980074  0.10208983  0.81531360    -0.11800
C2358       C  0.89688019  0.09932063  0.81911202     0.02100
H2359       H  0.89466023  0.05238347  0.86674648     0.15100
H2360       H  0.86294084  0.11628495  0.80105114     0.15100
C2361       C  0.91442837  0.11493903  0.80332911     0.36700
C2362       C  0.84358471  0.05289185  0.86382058     0.36600
N2363       N  0.92842673  0.12746674  0.79061815    -0.43600
N2364       N  0.82977454  0.03983351  0.87619402    -0.43600
C2365       C  0.99691742  0.03368051  0.79654113     0.00000
C2366       C  0.98540767  0.00885811  0.79350128    -0.11900
C2367       C  0.98399520  0.99666086  0.76887907     0.02200
C2368       C  0.99439618  0.00918013  0.74642351    -0.00100
C2369       C  0.00681472  0.03349894  0.74945310    -0.11800
C2370       C  0.00845716  0.04566309  0.77416726     0.02100
H2371       H  0.97625233  0.99941656  0.81018947     0.15100
H2372       H  0.01525092  0.04304311  0.73244207     0.15100
C2373       C  0.02205732  0.07046609  0.77574005     0.36700
C2374       C  0.96995500  0.97212830  0.76696811     0.36600
N2375       N  0.03300599  0.09031416  0.77692943    -0.43600
N2376       N  0.95860308  0.95254054  0.76539669    -0.43600
C2377       C  0.19042880  0.17430705  0.94368067     0.00000
C2378       C  0.20160963  0.15520377  0.92710115    -0.11900
C2379       C  0.19823382  0.12841823  0.93177193     0.02200
C2380       C  0.18377097  0.12013178  0.95388556    -0.00100
C2381       C  0.17300209  0.13934307  0.97075213    -0.11800
C2382       C  0.17596984  0.16615302  0.96573698     0.02100
H2383       H  0.21253620  0.16120617  0.90987191     0.15100
H2384       H  0.16167881  0.13349251  0.98776223     0.15100
C2385       C  0.16417710  0.18472749  0.98368357     0.36700
C2386       C  0.20942379  0.11016718  0.91312396     0.36600
N2387       N  0.15465469  0.19958547  0.99804438    -0.43600
N2388       N  0.21829966  0.09563604  0.89803626    -0.43600
C2389       C  0.09617413  0.06356550  0.92961503     0.00000
C2390       C  0.07205688  0.05648096  0.94057538    -0.11900
C2391       C  0.04881183  0.05925536  0.92629258     0.02200
C2392       C  0.04951430  0.06925140  0.90033471    -0.00100
C2393       C  0.07345510  0.07801013  0.89007493    -0.11800
C2394       C  0.09673736  0.07524194  0.90448438     0.02100
H2395       H  0.07145017  0.04797537  0.96004766     0.15100
H2396       H  0.07408661  0.08642874  0.87058051     0.15100
C2397       C  0.12086705  0.08506996  0.89333715     0.36700
C2398       C  0.02451314  0.05211767  0.93911043     0.36600
N2399       N  0.14021899  0.09308332  0.88456681    -0.43600
N2400       N  0.00511309  0.04645117  0.94948583    -0.43600
C2401       C  0.07334267  0.84102153  0.91840949     0.00000
C2402       C  0.05895439  0.85652063  0.90060468    -0.11900
C2403       C  0.06189869  0.85359603  0.87350308     0.02200
C2404       C  0.07954358  0.83465664  0.86352899    -0.00100
C2405       C  0.09333054  0.81858874  0.88134814    -0.11800
C2406       C  0.09047702  0.82161426  0.90847254     0.02100
H2407       H  0.04558136  0.87148512  0.90783285     0.15100
H2408       H  0.10693505  0.80382778  0.87414106     0.15100
C2409       C  0.10526798  0.80437827  0.92542165     0.36700
C2410       C  0.04650385  0.87036658  0.85663376     0.36600
N2411       N  0.11716705  0.79050480  0.93889848    -0.43600
N2412       N  0.03411058  0.88386694  0.84322286    -0.43600
C2413       C  0.10257558  0.92647157  0.98173706     0.00000
C2414       C  0.09454867  0.94840433  0.99615094    -0.11900
C2415       C  0.10828941  0.97203470  0.99461233     0.02200
C2416       C  0.13060778  0.97414719  0.97799877    -0.00100
C2417       C  0.13833472  0.95213888  0.96319069    -0.11800
C2418       C  0.12463915  0.92835490  0.96507725     0.02100
H2419       H  0.07765719  0.94692441  0.00906296     0.15100
H2420       H  0.15506515  0.95349571  0.95009467     0.15100
C2421       C  0.13288923  0.90649065  0.94895958     0.36700
C2422       C  0.09829730  0.99383172  0.00984440     0.36600
N2423       N  0.13936542  0.88900088  0.93593541    -0.43600
N2424       N  0.09018748  0.01119893  0.02210277    -0.43600
C2425       C  0.15600041  0.94689170  0.20832891     0.00000
C2426       C  0.14762001  0.97203911  0.20147483    -0.11900
C2427       C  0.12099792  0.97739677  0.19760641     0.02200
C2428       C  0.10216037  0.95696448  0.19979871    -0.00100
C2429       C  0.11053699  0.93202402  0.20781958    -0.11800
C2430       C  0.13719856  0.92683555  0.21212807     0.02100
H2431       H  0.16197054  0.98756466  0.19907281     0.15100
H2432       H  0.09643197  0.91620434  0.20955330     0.15100
C2433       C  0.14483195  0.90030448  0.21863168     0.36700
C2434       C  0.11386727  0.00412360  0.19134857     0.36600
N2435       N  0.15096576  0.87905401  0.22379805    -0.43600
N2436       N  0.10823588  0.02554814  0.18633989    -0.43600
C2437       C  0.01564314  0.03871532  0.28596099     0.00000
C2438       C  0.01469272  0.01120971  0.28627171    -0.11900
C2439       C  0.01415497  0.99653336  0.26300884     0.02200
C2440       C  0.01476138  0.00935078  0.23830061    -0.00100
C2441       C  0.01446489  0.03689862  0.23796149    -0.11800
C2442       C  0.01467134  0.05159576  0.26132526     0.02100
H2443       H  0.01508972  0.00094867  0.30487580     0.15100
H2444       H  0.01463983  0.04708131  0.21931718     0.15100
C2445       C  0.01490286  0.07982922  0.25910354     0.36700
C2446       C  0.01437136  0.96829549  0.26550626     0.36600
N2447       N  0.01500145  0.10245111  0.25717740    -0.43600
N2448       N  0.01455002  0.94569548  0.26769247    -0.43600
C2449       C  0.04676672  0.92119401  0.11072250     0.00000
C2450       C  0.02684383  0.90437775  0.10192024    -0.11900
C2451       C  0.03089549  0.88762118  0.08055060     0.02200
C2452       C  0.05557343  0.88695542  0.06786007    -0.00100
C2453       C  0.07601994  0.90276444  0.07755567    -0.11800
C2454       C  0.07172868  0.91999125  0.09873373     0.02100
H2455       H  0.00773758  0.90485446  0.11137385     0.15100
H2456       H  0.09494402  0.90264906  0.06776414     0.15100
C2457       C  0.09323135  0.93586781  0.10811387     0.36700
C2458       C  0.00921473  0.87160106  0.07172982     0.36600
N2459       N  0.11046017  0.94853792  0.11576308    -0.43600
N2460       N  0.99183625  0.85885004  0.06456739    -0.43600
C2461       C  0.82638980  0.92604259  0.07444068     0.00000
C2462       C  0.81777078  0.91840605  0.09939523    -0.11900
C2463       C  0.81378417  0.89198429  0.10536230     0.02200
C2464       C  0.81837710  0.87253690  0.08609287    -0.00100
C2465       C  0.82655684  0.88000867  0.06103850    -0.11800
C2466       C  0.83030131  0.90648101  0.05491806     0.02100
H2467       H  0.81498103  0.93301917  0.11465110     0.15100
H2468       H  0.82977713  0.86511356  0.04612877     0.15100
C2469       C  0.83781430  0.91275402  0.02834611     0.36700
C2470       C  0.80652066  0.88530842  0.13190909     0.36600
N2471       N  0.84376767  0.91767022  0.00701646    -0.43600
N2472       N  0.80080613  0.88000807  0.15320750    -0.43600
C2473       C  0.91429143  0.98499284  0.10497745     0.00000
C2474       C  0.91192107  0.97531347  0.13070971    -0.11900
C2475       C  0.93414533  0.97113655  0.14645450     0.02200
C2476       C  0.95929172  0.97694134  0.13652157    -0.00100
C2477       C  0.96158712  0.98657732  0.11079062    -0.11800
C2478       C  0.93950705  0.99063935  0.09504438     0.02100
H2479       H  0.89259594  0.97114099  0.13862834     0.15100
H2480       H  0.98084255  0.99112107  0.10288743     0.15100
C2481       C  0.94332288  0.00195265  0.06937080     0.36700
C2482       C  0.93048460  0.96215614  0.17300783     0.36600
N2483       N  0.94646229  0.01112554  0.04887511    -0.43600
N2484       N  0.92748210  0.95506184  0.19433114    -0.43600
C2485       C  0.95543990  0.20082201  0.11653261     0.00000
C2486       C  0.96016019  0.18004323  0.13396868    -0.11900
C2487       C  0.95565616  0.18304116  0.16085665     0.02200
C2488       C  0.94630161  0.20730863  0.17049693    -0.00100
C2489       C  0.94408890  0.22869182  0.15315974    -0.11800
C2490       C  0.94850331  0.22562484  0.12638643     0.02100
H2491       H  0.96601782  0.16098650  0.12640658     0.15100
H2492       H  0.93806148  0.24782524  0.16036652     0.15100
C2493       C  0.94599989  0.24823337  0.10954256     0.36700
C2494       C  0.95956703  0.16058825  0.17761729     0.36600
N2495       N  0.94415928  0.26646225  0.09618699    -0.43600
N2496       N  0.96281331  0.14254887  0.19097696    -0.43600
C2497       C  0.95320383  0.15330323  0.96768768     0.00000
C2498       C  0.93571457  0.13247871  0.96309920    -0.11900
C2499       C  0.93951959  0.11532413  0.94178303     0.02200
C2500       C  0.96097983  0.11922850  0.92469930    -0.00100
C2501       C  0.97742505  0.14100984  0.92864410    -0.11800
C2502       C  0.97384550  0.15781009  0.94995029     0.02100
H2503       H  0.91999008  0.12875668  0.97695030     0.15100
H2504       H  0.99380513  0.14446797  0.91548612     0.15100
C2505       C  0.99212600  0.17915179  0.95374559     0.36700
C2506       C  0.92113153  0.09418482  0.93773453     0.36600
N2507       N  0.00672468  0.19624512  0.95690911    -0.43600
N2508       N  0.90631182  0.07731394  0.93439908    -0.43600
C2509       C  0.91541811  0.11616475  0.05630407     0.00000
C2510       C  0.91677452  0.09789425  0.03596849    -0.11900
C2511       C  0.90024245  0.07614804  0.03545140     0.02200
C2512       C  0.88218891  0.07179048  0.05630606    -0.00100
C2513       C  0.88103944  0.09026995  0.07687857    -0.11800
C2514       C  0.89726999  0.11252597  0.07683532     0.02100
H2515       H  0.93026274  0.10116736  0.01980572     0.15100
H2516       H  0.86769169  0.08723828  0.09315582     0.15100
C2517       C  0.89561376  0.13094947  0.09834834     0.36700
C2518       C  0.90252950  0.05900070  0.01295036     0.36600
N2519       N  0.89444046  0.14568660  0.11561969    -0.43600
N2520       N  0.90450330  0.04543273  0.99482015    -0.43600
C2521       C  0.69403791  0.92582590  0.94599797     0.00000
C2522       C  0.69955539  0.91730707  0.92039148    -0.11900
C2523       C  0.70380514  0.89066924  0.91497181     0.02200
C2524       C  0.70213597  0.87200956  0.93535757    -0.00100
C2525       C  0.69760391  0.88050896  0.96102626    -0.11800
C2526       C  0.69414519  0.90716810  0.96661246     0.02100
H2527       H  0.69953905  0.93129234  0.90440259     0.15100
H2528       H  0.69714824  0.86628880  0.97681657     0.15100
C2529       C  0.69136434  0.91474487  0.99379162     0.36700
C2530       C  0.70847505  0.88282372  0.88812081     0.36600
N2531       N  0.68933448  0.92080462  0.01558465    -0.43600
N2532       N  0.71225822  0.87648477  0.86663856    -0.43600
C2533       C  0.73076039  0.01382266  0.00020126     0.00000
C2534       C  0.75421612  0.01521467  0.98557283    -0.11900
C2535       C  0.77887088  0.01535616  0.99769425     0.02200
C2536       C  0.78069158  0.01425296  0.02529039    -0.00100
C2537       C  0.75725315  0.01441183  0.04005516    -0.11800
C2538       C  0.73248203  0.01410386  0.02783921     0.02100
H2539       H  0.75347009  0.01531817  0.96432252     0.15100
H2540       H  0.75821624  0.01385976  0.06128591     0.15100
C2541       C  0.70931955  0.01407423  0.04417885     0.36700
C2542       C  0.80186962  0.01654793  0.98112620     0.36600
N2543       N  0.69078258  0.01414509  0.05733386    -0.43600
N2544       N  0.82023350  0.01750146  0.96777030    -0.43600
C2545       C  0.56294715  0.19922745  0.91528651     0.00000
C2546       C  0.54892435  0.18366926  0.89723341    -0.11900
C2547       C  0.55237437  0.18664808  0.87016596     0.02200
C2548       C  0.57028730  0.20545983  0.86072395    -0.00100
C2549       C  0.58307001  0.22200552  0.87880977    -0.11800
C2550       C  0.57953548  0.21915559  0.90575754     0.02100
H2551       H  0.53568129  0.16859502  0.90424124     0.15100
H2552       H  0.59656139  0.23694712  0.87198589     0.15100
C2553       C  0.59311108  0.23713669  0.92298749     0.36700
C2554       C  0.53714992  0.17030380  0.85273157     0.36600
N2555       N  0.60394605  0.25161093  0.93673985    -0.43600
N2556       N  0.52480481  0.15725467  0.83883098    -0.43600
C2557       C  0.59677065  0.11312340  0.97469118     0.00000
C2558       C  0.62315227  0.11527478  0.96649610    -0.11900
C2559       C  0.63886401  0.09300393  0.96228197     0.02200
C2560       C  0.62843149  0.06786267  0.96680660    -0.00100
C2561       C  0.60195473  0.06563816  0.97448972    -0.11800
C2562       C  0.58604545  0.08783182  0.97814458     0.02100
H2563       H  0.63168825  0.13451225  0.96350286     0.15100
H2564       H  0.59355668  0.04634704  0.97759543     0.15100
C2565       C  0.55909461  0.08389639  0.98608305     0.36700
C2566       C  0.66584646  0.09658966  0.95436836     0.36600
N2567       N  0.53747854  0.08061304  0.99231334    -0.43600
N2568       N  0.68746850  0.09951255  0.94799483    -0.43600
C2569       C  0.60493769  0.08931927  0.19958104     0.00000
C2570       C  0.61385637  0.11516916  0.20253123    -0.11900
C2571       C  0.64052498  0.12041983  0.20654468     0.02200
C2572       C  0.65882101  0.09955057  0.20754262    -0.00100
C2573       C  0.64991732  0.07367931  0.20553475    -0.11800
C2574       C  0.62315410  0.06837376  0.20200801     0.02100
H2575       H  0.60016278  0.13139521  0.20058488     0.15100
H2576       H  0.66385653  0.05760929  0.20705915     0.15100
C2577       C  0.61488099  0.04127875  0.20169830     0.36700
C2578       C  0.64882886  0.14747945  0.20805093     0.36600
N2579       N  0.60822045  0.01958142  0.20166857    -0.43600
N2580       N  0.65549139  0.16914832  0.20919038    -0.43600
C2581       C  0.55403342  0.15343546  0.06495502     0.00000
C2582       C  0.53130369  0.15697747  0.08005269    -0.11900
C2583       C  0.52735045  0.14249918  0.10293426     0.02200
C2584       C  0.54632382  0.12377856  0.11082805    -0.00100
C2585       C  0.56922194  0.12046775  0.09587071    -0.11800
C2586       C  0.57326917  0.13521168  0.07310444     0.02100
H2587       H  0.51619250  0.17048761  0.07344297     0.15100
H2588       H  0.58376201  0.10603835  0.10175161     0.15100
C2589       C  0.59625606  0.12979770  0.05735766     0.36700
C2590       C  0.50278306  0.14590022  0.11679261     0.36600
N2591       N  0.61458729  0.12537003  0.04464360    -0.43600
N2592       N  0.48305950  0.14857500  0.12780422    -0.43600
C2593       C  0.41207391  0.96163132  0.83241388     0.00000
C2594       C  0.39393509  0.97417588  0.84913887    -0.11900
C2595       C  0.36684425  0.97089150  0.84585220     0.02200
C2596       C  0.35744996  0.95473877  0.82539647    -0.00100
C2597       C  0.37566811  0.94336122  0.80789993    -0.11800
C2598       C  0.40265481  0.94662260  0.81118951     0.02100
H2599       H  0.40091483  0.98608361  0.86534794     0.15100
H2600       H  0.36893257  0.93122181  0.79176366     0.15100
C2601       C  0.42004982  0.93447003  0.79230000     0.36700
C2602       C  0.34939882  0.98419974  0.86386739     0.36600
N2603       N  0.43394899  0.92474915  0.77713624    -0.43600
N2604       N  0.33547253  0.99494573  0.87830190    -0.43600
C2605       C  0.60528270  0.98057597  0.91042959     0.00000
C2606       C  0.59855414  0.99950956  0.89163268    -0.11900
C2607       C  0.57714548  0.99581966  0.87496985     0.02200
C2608       C  0.56228449  0.97261743  0.87666479    -0.00100
C2609       C  0.57000145  0.95286041  0.89422077    -0.11800
C2610       C  0.59132788  0.95672631  0.91120791     0.02100
H2611       H  0.60955284  0.01768697  0.89053442     0.15100
H2612       H  0.55848424  0.93504183  0.89569434     0.15100
C2613       C  0.59872866  0.93593205  0.92891137     0.36700
C2614       C  0.57047958  0.01631443  0.85658781     0.36600
N2615       N  0.60479968  0.91922978  0.94301244    -0.43600
N2616       N  0.56513262  0.03269779  0.84183845    -0.43600
C2617       C  0.32943229  0.11953401  0.07153680     0.00000
C2618       C  0.34796456  0.13758197  0.06203301    -0.11900
C2619       C  0.34388898  0.16462086  0.06433338     0.02200
C2620       C  0.32069070  0.17409543  0.07632351    -0.00100
C2621       C  0.30153163  0.15588275  0.08448109    -0.11800
C2622       C  0.30570830  0.12887499  0.08224392     0.02100
H2623       H  0.36617074  0.13053852  0.05342191     0.15100
H2624       H  0.28331978  0.16265756  0.09325963     0.15100
C2625       C  0.28512377  0.11128876  0.09057262     0.36700
C2626       C  0.36419753  0.18186830  0.05476184     0.36600
N2627       N  0.26858854  0.09720468  0.09713910    -0.43600
N2628       N  0.38055131  0.19556868  0.04703499    -0.43600
C2629       C  0.28149883  0.03008457  0.02909330     0.00000
C2630       C  0.28049224  0.03072587  0.00158531    -0.11900
C2631       C  0.25639250  0.03090872  0.98821392     0.02200
C2632       C  0.23246202  0.03091508  0.00248527    -0.00100
C2633       C  0.23349496  0.02890348  0.02985173    -0.11800
C2634       C  0.25749486  0.02820052  0.04319316     0.02100
H2635       H  0.29860632  0.03173041  0.99042257     0.15100
H2636       H  0.21536053  0.02835431  0.04103166     0.15100
C2637       C  0.25644341  0.02646992  0.07144548     0.36700
C2638       C  0.25705870  0.03228460  0.95993745     0.36600
N2639       N  0.25546984  0.02499648  0.09406616    -0.43600
N2640       N  0.25768811  0.03328565  0.93727684    -0.43600
C2641       C  0.41473578  0.06118727  0.10909717     0.00000
C2642       C  0.43867295  0.06511083  0.09601083    -0.11900
C2643       C  0.46191425  0.06955729  0.10996693     0.02200
C2644       C  0.46159662  0.07014116  0.13765595    -0.00100
C2645       C  0.43768996  0.06762090  0.15085273    -0.11800
C2646       C  0.41435021  0.06308331  0.13697050     0.02100
H2647       H  0.43939511  0.06436480  0.07477451     0.15100
H2648       H  0.43738287  0.06836527  0.17211098     0.15100
C2649       C  0.39057001  0.06021258  0.15215919     0.36700
C2650       C  0.48579734  0.07406421  0.09533614     0.36600
N2651       N  0.37159413  0.05790886  0.16445117    -0.43600
N2652       N  0.50482817  0.07780346  0.08350691    -0.43600
C2653       C  0.44362346  0.83955298  0.10814673     0.00000
C2654       C  0.45765830  0.85294366  0.12788963    -0.11900
C2655       C  0.45365584  0.84762902  0.15445820     0.02200
C2656       C  0.43511373  0.82853666  0.16188963    -0.00100
C2657       C  0.42200104  0.81427038  0.14210803    -0.11800
C2658       C  0.42607451  0.81954045  0.11551807     0.02100
H2659       H  0.47156641  0.86814710  0.12265986     0.15100
H2660       H  0.40790647  0.79924464  0.14734792     0.15100
C2661       C  0.41208488  0.80394507  0.09642877     0.36700
C2662       C  0.46896052  0.86207905  0.17344405     0.36600
N2663       N  0.40089185  0.79133774  0.08120486    -0.43600
N2664       N  0.48134259  0.87365828  0.18856338    -0.43600
C2665       C  0.46591647  0.89883767  0.96375855     0.00000
C2666       C  0.48100406  0.92199955  0.96417604    -0.11900
C2667       C  0.48541913  0.93661725  0.94146666     0.02200
C2668       C  0.47453606  0.92832823  0.91746834    -0.00100
C2669       C  0.45972759  0.90506007  0.91675950    -0.11800
C2670       C  0.45521714  0.89037477  0.93960787     0.02100
H2671       H  0.48954399  0.92886922  0.98241593     0.15100
H2672       H  0.45155859  0.89837612  0.89827785     0.15100
C2673       C  0.44021820  0.86647154  0.93744805     0.36700
C2674       C  0.50243420  0.95922379  0.94312911     0.36600
N2675       N  0.42823065  0.84728711  0.93560055    -0.43600
N2676       N  0.51623122  0.97719877  0.94443994    -0.43600
C2677       C  0.37541728  0.96961649  0.06203675     0.00000
C2678       C  0.39277171  0.96075196  0.08146165    -0.11900
C2679       C  0.40891511  0.93890311  0.07686027     0.02200
C2680       C  0.40758674  0.92570612  0.05254804    -0.00100
C2681       C  0.38868136  0.93333646  0.03406009    -0.11800
C2682       C  0.37276512  0.95524113  0.03853271     0.02100
H2683       H  0.39478458  0.97174271  0.09959045     0.15100
H2684       H  0.38705391  0.92277720  0.01563408     0.15100
C2685       C  0.35419835  0.96297840  0.01852908     0.36700
C2686       C  0.42634452  0.93015058  0.09740777     0.36600
N2687       N  0.33926695  0.96920869  0.00258710    -0.43600
N2688       N  0.44017525  0.92294362  0.11391124    -0.43600
C2689       C  0.69737950  0.16959951  0.58469886     0.00000
C2690       C  0.68650213  0.16326683  0.56030441    -0.11900
C2691       C  0.68238319  0.13708399  0.55301010     0.02200
C2692       C  0.68870938  0.11650362  0.57069872    -0.00100
C2693       C  0.70038471  0.12299089  0.59478745    -0.11800
C2694       C  0.70475264  0.14913305  0.60189405     0.02100
H2695       H  0.68123319  0.17886857  0.54684285     0.15100
H2696       H  0.70534216  0.10764024  0.60862957     0.15100
C2697       C  0.71536656  0.15431903  0.62766647     0.36700
C2698       C  0.67152332  0.13227883  0.52728285     0.36600
N2699       N  0.72381767  0.15843647  0.64833305    -0.43600
N2700       N  0.66286858  0.12860517  0.50661590    -0.43600
C2701       C  0.73077818  0.02708251  0.51867870     0.00000
C2702       C  0.75397843  0.02428930  0.53356658    -0.11900
C2703       C  0.77891642  0.02464110  0.52181067     0.02200
C2704       C  0.78126395  0.02821853  0.49447629    -0.00100
C2705       C  0.75807375  0.02885174  0.47934815    -0.11800
C2706       C  0.73308076  0.02812744  0.49108150     0.02100
H2707       H  0.75279708  0.02256589  0.55471841     0.15100
H2708       H  0.75937684  0.03077638  0.45821876     0.15100
C2709       C  0.71028318  0.02836169  0.47423804     0.36700
C2710       C  0.80165952  0.02087203  0.53831065     0.36600
N2711       N  0.69204681  0.02831304  0.46067897    -0.43600
N2712       N  0.81982561  0.01758479  0.55156267    -0.43600
C2713       C  0.40766314  0.07845317  0.68697609     0.00000
C2714       C  0.38880001  0.06538494  0.67153849    -0.11900
C2715       C  0.36185851  0.06954980  0.67535337     0.02200
C2716       C  0.35336354  0.08700112  0.69513448    -0.00100
C2717       C  0.37230117  0.09914123  0.71123234    -0.11800
C2718       C  0.39910363  0.09511977  0.70736283     0.02100
H2719       H  0.39507977  0.05238265  0.65586466     0.15100
H2720       H  0.36627665  0.11247258  0.72673046     0.15100
C2721       C  0.41715695  0.10844671  0.72471854     0.36700
C2722       C  0.34362392  0.05576782  0.65860326     0.36600
N2723       N  0.43150451  0.11920689  0.73866124    -0.43600
N2724       N  0.32908639  0.04466743  0.64513257    -0.43600
C2725       C  0.49789910  0.03341379  0.73334175     0.00000
C2726       C  0.49949700  0.00588453  0.73370175    -0.11900
C2727       C  0.50033163  0.99189314  0.75737596     0.02200
C2728       C  0.49938016  0.00545750  0.78169592    -0.00100
C2729       C  0.49871905  0.03302398  0.78129477    -0.11800
C2730       C  0.49800496  0.04700487  0.75764338     0.02100
H2731       H  0.49956230  0.99510401  0.71533660     0.15100
H2732       H  0.49809424  0.04383437  0.79963285     0.15100
C2733       C  0.49601067  0.07524169  0.75923738     0.36700
C2734       C  0.50107067  0.96360179  0.75580340     0.36600
N2735       N  0.49438529  0.09785798  0.76064653    -0.43600
N2736       N  0.50167751  0.94093687  0.75440445    -0.43600
C2737       C  0.60033783  0.05804601  0.60320933     0.00000
C2738       C  0.58662944  0.08194178  0.60193865    -0.11900
C2739       C  0.56448185  0.08639696  0.61782075     0.02200
C2740       C  0.55551874  0.06642599  0.63477334    -0.00100
C2741       C  0.56934192  0.04268029  0.63604280    -0.11800
C2742       C  0.59170991  0.03845396  0.62074666     0.02100
H2743       H  0.59327921  0.09711554  0.58864732     0.15100
H2744       H  0.56228642  0.02712714  0.64869400     0.15100
C2745       C  0.60472566  0.01328346  0.62254804     0.36700
C2746       C  0.55052612  0.11098621  0.61538955     0.36600
N2747       N  0.61518348  0.99314956  0.62401656    -0.43600
N2748       N  0.53932806  0.13068801  0.61350637    -0.43600
C2749       C  0.31486750  0.92505124  0.44603865     0.00000
C2750       C  0.30443538  0.91687748  0.42189820    -0.11900
C2751       C  0.30005630  0.89023062  0.41666875     0.02200
C2752       C  0.30655137  0.87114092  0.43572746    -0.00100
C2753       C  0.31564821  0.87933625  0.46025379    -0.11800
C2754       C  0.31935560  0.90592299  0.46578473     0.02100
H2755       H  0.30059563  0.93119411  0.40667182     0.15100
H2756       H  0.31989536  0.86484217  0.47522610     0.15100
C2757       C  0.32773547  0.91267519  0.49201639     0.36700
C2758       C  0.29029221  0.88303570  0.39105702     0.36600
N2759       N  0.33436480  0.91797364  0.51307738    -0.43600
N2760       N  0.28239883  0.87733618  0.37054391    -0.43600
C2761       C  0.27496288  0.01263799  0.49747466     0.00000
C2762       C  0.27612194  0.01471019  0.52486161    -0.11900
C2763       C  0.25325096  0.01463938  0.54020180     0.02200
C2764       C  0.22815656  0.01228191  0.52815625    -0.00100
C2765       C  0.22698827  0.01112182  0.50067563    -0.11800
C2766       C  0.24989226  0.01126628  0.48534801     0.02100
H2767       H  0.29510553  0.01586332  0.53447030     0.15100
H2768       H  0.20807975  0.00933430  0.49103135     0.15100
C2769       C  0.24683369  0.00844101  0.45732593     0.36700
C2770       C  0.25660571  0.01604763  0.56829798     0.36600
N2771       N  0.24424940  0.00611392  0.43489492    -0.43600
N2772       N  0.25946515  0.01715425  0.59078715    -0.43600
C2773       C  0.44714256  0.19985339  0.40822081     0.00000
C2774       C  0.46485548  0.18947355  0.38953156    -0.11900
C2775       C  0.46104206  0.19322756  0.36265178     0.02200
C2776       C  0.43921476  0.20777891  0.35398588    -0.00100
C2777       C  0.42217394  0.21909045  0.37260834    -0.11800
C2778       C  0.42585292  0.21528852  0.39942903     0.02100
H2779       H  0.48156273  0.17783672  0.39581520     0.15100
H2780       H  0.40530864  0.23045103  0.36619369     0.15100
C2781       C  0.40705035  0.22707614  0.41714320     0.36700
C2782       C  0.47998283  0.18229449  0.34454104     0.36600
N2783       N  0.39189404  0.23657941  0.43120394    -0.43600
N2784       N  0.49518205  0.17360769  0.33000903    -0.43600
C2785       C  0.46124010  0.13938413  0.55223899     0.00000
C2786       C  0.45118799  0.14978349  0.57568708    -0.11900
C2787       C  0.45335713  0.13577257  0.59925534     0.02200
C2788       C  0.46553795  0.11077061  0.59943912    -0.00100
C2789       C  0.47426574  0.09987262  0.57579938    -0.11800
C2790       C  0.47229055  0.11379885  0.55237752     0.02100
H2791       H  0.44208635  0.16904791  0.57570455     0.15100
H2792       H  0.48339552  0.08060504  0.57570167     0.15100
C2793       C  0.48136845  0.10089080  0.52876608     0.36700
C2794       C  0.44233815  0.14719056  0.62276463     0.36600
N2795       N  0.48869221  0.09042146  0.50996064    -0.43600
N2796       N  0.43335106  0.15633684  0.64153824    -0.43600
C2797       C  0.41054224  0.11284252  0.46439936     0.00000
C2798       C  0.42115164  0.08786418  0.46857003    -0.11900
C2799       C  0.40539477  0.06552408  0.46719076     0.02200
C2800       C  0.37827988  0.06780818  0.46116946    -0.00100
C2801       C  0.36787986  0.09261797  0.45547944    -0.11800
C2802       C  0.38366510  0.11513062  0.45728217     0.02100
H2803       H  0.44170445  0.08579607  0.47384637     0.15100
H2804       H  0.34729512  0.09448828  0.45028084     0.15100
C2805       C  0.37179118  0.14023199  0.45151613     0.36700
C2806       C  0.41788603  0.04041765  0.47161538     0.36600
N2807       N  0.36224357  0.16033146  0.44689498    -0.43600
N2808       N  0.42800883  0.02038509  0.47519574    -0.43600
C2809       C  0.59984557  0.95732565  0.33821033     0.00000
C2810       C  0.60891295  0.95229786  0.31280077    -0.11900
C2811       C  0.63581011  0.94924933  0.30781510     0.02200
C2812       C  0.65415568  0.95098261  0.32870187    -0.00100
C2813       C  0.64486685  0.95599153  0.35414535    -0.11800
C2814       C  0.61801382  0.95898548  0.35906515     0.02100
H2815       H  0.59497303  0.95119790  0.29674149     0.15100
H2816       H  0.65853219  0.95673681  0.37045046     0.15100
C2817       C  0.60948532  0.96223330  0.38592226     0.36700
C2818       C  0.64384697  0.94487500  0.28099532     0.36600
N2819       N  0.60259464  0.96463217  0.40742588    -0.43600
N2820       N  0.65016410  0.94137119  0.25946571    -0.43600
C2821       C  0.51526519  0.00853076  0.28672340     0.00000
C2822       C  0.51618142  0.99427678  0.26302583    -0.11900
C2823       C  0.51735286  0.00700498  0.23866202     0.02200
C2824       C  0.51733830  0.03471904  0.23758099    -0.00100
C2825       C  0.51533465  0.04886800  0.26126635    -0.11800
C2826       C  0.51442370  0.03620470  0.28555245     0.02100
H2827       H  0.51677400  0.97301041  0.26349124     0.15100
H2828       H  0.51517618  0.07014529  0.26099878     0.15100
C2829       C  0.51262211  0.05231786  0.30882864     0.36700
C2830       C  0.51863961  0.99102448  0.21528106     0.36600
N2831       N  0.51120704  0.06535299  0.32739432    -0.43600
N2832       N  0.51965212  0.97810576  0.19660839    -0.43600
C2833       C  0.44946669  0.97555282  0.38000175     0.00000
C2834       C  0.43786732  0.00051887  0.38158073    -0.11900
C2835       C  0.41527138  0.00477569  0.39661770     0.02200
C2836       C  0.40415981  0.98388615  0.41090715    -0.00100
C2837       C  0.41540684  0.95882292  0.40911777    -0.11800
C2838       C  0.43776997  0.95442948  0.39358533     0.02100
H2839       H  0.44691660  0.01692998  0.37155325     0.15100
H2840       H  0.40676027  0.94270885  0.41993646     0.15100
C2841       C  0.44921274  0.92848245  0.39325749     0.36700
C2842       C  0.40466781  0.03107428  0.39812557     0.36600
N2843       N  0.45838183  0.90767986  0.39300220    -0.43600
N2844       N  0.39628217  0.05217760  0.39926043    -0.43600
C2845       C  0.56855956  0.83447302  0.60781313     0.00000
C2846       C  0.59432877  0.82806814  0.61514040    -0.11900
C2847       C  0.60074340  0.82385675  0.64141363     0.02200
C2848       C  0.58112803  0.82606189  0.66092107    -0.00100
C2849       C  0.55522128  0.83152316  0.65367901    -0.11800
C2850       C  0.54866652  0.83532825  0.62733566     0.02100
H2851       H  0.60977678  0.82746694  0.60048810     0.15100
H2852       H  0.54006566  0.83259885  0.66861885     0.15100
C2853       C  0.52131989  0.83969910  0.62104673     0.36700
C2854       C  0.62794693  0.81895568  0.64799390     0.36600
N2855       N  0.49938479  0.84309915  0.61606677    -0.43600
N2856       N  0.64973043  0.81510762  0.65329864    -0.43600
C2857       C  0.54431012  0.89640508  0.46572407     0.00000
C2858       C  0.55008141  0.88501507  0.44137590    -0.11900
C2859       C  0.54596120  0.89899609  0.41807430     0.02200
C2860       C  0.53650446  0.92517629  0.41903910    -0.00100
C2861       C  0.53155462  0.93673470  0.44348011    -0.11800
C2862       C  0.53511448  0.92265540  0.46664331     0.02100
H2863       H  0.55729000  0.86498261  0.44052620     0.15100
H2864       H  0.52440029  0.95678459  0.44452690     0.15100
C2865       C  0.52950842  0.93599889  0.49105465     0.36700
C2866       C  0.55200853  0.88605086  0.39358784     0.36600
N2867       N  0.52472509  0.94689495  0.51041499    -0.43600
N2868       N  0.55678024  0.87561183  0.37397196    -0.43600
C2869       C  0.62814633  0.97241459  0.55339313     0.00000
C2870       C  0.64002889  0.94811211  0.55844212    -0.11900
C2871       C  0.62547941  0.92475123  0.55690475     0.02200
C2872       C  0.59826826  0.92556818  0.55086773    -0.00100
C2873       C  0.58622763  0.95004650  0.54730571    -0.11800
C2874       C  0.60082769  0.97325653  0.54816321     0.02100
H2875       H  0.66083842  0.94731619  0.56300237     0.15100
H2876       H  0.56540071  0.95106199  0.54304942     0.15100
C2877       C  0.58702912  0.99772856  0.54407310     0.36700
C2878       C  0.63895385  0.90032990  0.56202109     0.36600
N2879       N  0.57589064  0.01726350  0.54073258    -0.43600
N2880       N  0.64985748  0.88081789  0.56615472    -0.43600
C2881       C  0.32041442  0.42373857  0.58729892     0.00000
C2882       C  0.32800949  0.40657247  0.56689681    -0.11900
C2883       C  0.32472471  0.37947481  0.56899091     0.02200
C2884       C  0.31346085  0.36893340  0.59179969    -0.00100
C2885       C  0.30437332  0.38601344  0.61151308    -0.11800
C2886       C  0.30797058  0.41315968  0.60965927     0.02100
H2887       H  0.33701327  0.41422051  0.54923628     0.15100
H2888       H  0.29504117  0.37805285  0.62884776     0.15100
C2889       C  0.29931153  0.42930687  0.63132265     0.36700
C2890       C  0.33227097  0.36308799  0.54709007     0.36600
N2891       N  0.29237607  0.44212032  0.64878412    -0.43600
N2892       N  0.33816856  0.35003888  0.52943343    -0.43600
C2893       C  0.60463036  0.45976565  0.69048304     0.00000
C2894       C  0.61388306  0.45361879  0.71551900    -0.11900
C2895       C  0.64079853  0.45081299  0.72022075     0.02200
C2896       C  0.65899979  0.45367780  0.69931764    -0.00100
C2897       C  0.64962393  0.46058995  0.67441756    -0.11800
C2898       C  0.62273137  0.46356266  0.66981852     0.02100
H2899       H  0.60002454  0.45117390  0.73149851     0.15100
H2900       H  0.66321759  0.46261936  0.65816811     0.15100
C2901       C  0.61421282  0.46881248  0.64330765     0.36700
C2902       C  0.64892168  0.44513936  0.74675283     0.36600
N2903       N  0.60743477  0.47288710  0.62204173    -0.43600
N2904       N  0.65531714  0.44059920  0.76804188    -0.43600
C2905       C  0.45292220  0.47086340  0.65170166     0.00000
C2906       C  0.43846048  0.49376238  0.65675783    -0.11900
C2907       C  0.41552672  0.49939571  0.64273713     0.02200
C2908       C  0.40686631  0.48201399  0.62293202    -0.00100
C2909       C  0.42108418  0.45883141  0.61817234    -0.11800
C2910       C  0.44393774  0.45308605  0.63245840     0.02100
H2911       H  0.44574817  0.50784143  0.67098546     0.15100
H2912       H  0.41453752  0.44539252  0.60301178     0.15100
C2913       C  0.45889828  0.42992704  0.62564522     0.36700
C2914       C  0.40243544  0.52410686  0.64770381     0.36600
N2915       N  0.47094409  0.41142966  0.62011417    -0.43600
N2916       N  0.39204956  0.54396581  0.65161345    -0.43600
C2917       C  0.57379993  0.33901630  0.41952413     0.00000
C2918       C  0.55392628  0.34650178  0.40174498    -0.11900
C2919       C  0.55724518  0.34395370  0.37472278     0.02200
C2920       C  0.58075441  0.33338803  0.36478440    -0.00100
C2921       C  0.60036268  0.32505307  0.38240216    -0.11800
C2922       C  0.59719811  0.32788600  0.40955420     0.02100
H2923       H  0.53560707  0.35477839  0.40887518     0.15100
H2924       H  0.61858447  0.31687767  0.37489079     0.15100
C2925       C  0.61852414  0.31983084  0.42640824     0.36700
C2926       C  0.53587608  0.35174756  0.35783059     0.36600
N2927       N  0.63567224  0.31335765  0.43984318    -0.43600
N2928       N  0.51854885  0.35804223  0.34456565    -0.43600
C2929       C  0.52186908  0.29057676  0.50307854     0.00000
C2930       C  0.53684589  0.26725709  0.50253297    -0.11900
C2931       C  0.52485903  0.24251902  0.50028016     0.02200
C2932       C  0.49717970  0.24064331  0.49899221    -0.00100
C2933       C  0.48227020  0.26391104  0.50073019    -0.11800
C2934       C  0.49418920  0.28856920  0.50252727     0.02100
H2935       H  0.55812438  0.26833399  0.50291288     0.15100
H2936       H  0.46099517  0.26302777  0.49982023     0.15100
C2937       C  0.47731545  0.31138620  0.50344820     0.36700
C2938       C  0.54151712  0.21957106  0.49915989     0.36600
N2939       N  0.46372029  0.32961849  0.50406264    -0.43600
N2940       N  0.55495354  0.20123250  0.49823085    -0.43600
C2941       C  0.54117562  0.42330224  0.61022183     0.00000
C2942       C  0.55328691  0.39847846  0.61251285    -0.11900
C2943       C  0.55747735  0.38244663  0.59041825     0.02200
C2944       C  0.54921235  0.39115773  0.56556110    -0.00100
C2945       C  0.53701329  0.41589359  0.56345092    -0.11800
C2946       C  0.53292019  0.43186858  0.58532198     0.02100
H2947       H  0.55947985  0.39155805  0.63163241     0.15100
H2948       H  0.53061443  0.42296125  0.54443902     0.15100
C2949       C  0.51901986  0.45634744  0.58169132     0.36700
C2950       C  0.56917996  0.35687729  0.59393547     0.36600
N2951       N  0.50776374  0.47588262  0.57876883    -0.43600
N2952       N  0.57843820  0.33632137  0.59682322    -0.43600
C2953       C  0.68524948  0.61832685  0.45677823     0.00000
C2954       C  0.70507830  0.62449352  0.43881155    -0.11900
C2955       C  0.71083350  0.65054856  0.43255514     0.02200
C2956       C  0.69629118  0.67135998  0.44425620    -0.00100
C2957       C  0.67694745  0.66519059  0.46279506    -0.11800
C2958       C  0.67135959  0.63911864  0.46921423     0.02100
H2959       H  0.71601595  0.60883265  0.42930927     0.15100
H2960       H  0.66573978  0.68080124  0.47205401     0.15100
C2961       C  0.65051215  0.63460312  0.48789800     0.36700
C2962       C  0.73134262  0.65489243  0.41346866     0.36600
N2963       N  0.63382811  0.63113768  0.50291495    -0.43600
N2964       N  0.74782691  0.65820456  0.39819952    -0.43600
C2965       C  0.60251751  0.42477831  0.48124384     0.00000
C2966       C  0.58943548  0.44891005  0.48334016    -0.11900
C2967       C  0.60287145  0.47251855  0.48013088     0.02200
C2968       C  0.63007915  0.47240583  0.47442253    -0.00100
C2969       C  0.64312958  0.44835918  0.47131402    -0.11800
C2970       C  0.62968459  0.42458668  0.47491600     0.02100
H2971       H  0.56863349  0.44940926  0.48799359     0.15100
H2972       H  0.66394217  0.44815587  0.46671915     0.15100
C2973       C  0.64420774  0.40041713  0.47162295     0.36700
C2974       C  0.58800469  0.49664847  0.48224624     0.36600
N2975       N  0.65588705  0.38106712  0.46900732    -0.43600
N2976       N  0.57609117  0.51595467  0.48393709    -0.43600
C2977       C  0.40885032  0.58243972  0.33376479     0.00000
C2978       C  0.40229439  0.59741052  0.31177304    -0.11900
C2979       C  0.37605786  0.60217312  0.30513573     0.02200
C2980       C  0.35544458  0.59217274  0.32109306    -0.00100
C2981       C  0.36208210  0.57642778  0.34261690    -0.11800
C2982       C  0.38837730  0.57142713  0.34902873     0.02100
H2983       H  0.41780076  0.60561508  0.29972757     0.15100
H2984       H  0.34669276  0.56850173  0.35497362     0.15100
C2985       C  0.39354112  0.55601509  0.37220149     0.36700
C2986       C  0.37134404  0.61780755  0.28200446     0.36600
N2987       N  0.39759326  0.54364916  0.39077238    -0.43600
N2988       N  0.36776212  0.63031957  0.26343322    -0.43600
C2989       C  0.55559620  0.57126078  0.38996891     0.00000
C2990       C  0.55742720  0.58326397  0.41470047    -0.11900
C2991       C  0.57891896  0.57837174  0.43131218     0.02200
C2992       C  0.59929825  0.56124113  0.42309775    -0.00100
C2993       C  0.59762593  0.54992056  0.39787848    -0.11800
C2994       C  0.57593684  0.55453837  0.38154914     0.02100
H2995       H  0.54147294  0.59572094  0.42147889     0.15100
H2996       H  0.61297355  0.53676075  0.39108257     0.15100
C2997       C  0.57456614  0.54141961  0.35645760     0.36700
C2998       C  0.57934038  0.59112347  0.45661483     0.36600
N2999       N  0.57333736  0.53095007  0.33633414    -0.43600
N3000       N  0.57958935  0.60133282  0.47690946    -0.43600
C3001       C  0.44267053  0.69883804  0.61479153     0.00000
C3002       C  0.45146188  0.67938729  0.63221037    -0.11900
C3003       C  0.44862271  0.68227500  0.65925938     0.02200
C3004       C  0.43701640  0.70535087  0.66947547    -0.00100
C3005       C  0.42869023  0.72505800  0.65192607    -0.11800
C3006       C  0.43129771  0.72192309  0.62479577     0.02100
H3007       H  0.46000678  0.66137989  0.62459112     0.15100
H3008       H  0.41986040  0.74298672  0.65934018     0.15100
C3009       C  0.42286650  0.74290323  0.60777365     0.36700
C3010       C  0.45702880  0.66076364  0.67567438     0.36600
N3011       N  0.41619106  0.75975484  0.59412770    -0.43600
N3012       N  0.46372731  0.64341972  0.68868945    -0.43600
C3013       C  0.48808170  0.74467433  0.52255946     0.00000
C3014       C  0.51566929  0.74511224  0.52340067    -0.11900
C3015       C  0.52968048  0.76880836  0.52247874     0.02200
C3016       C  0.51609293  0.79315682  0.52144622    -0.00100
C3017       C  0.48860763  0.79271588  0.51937257    -0.11800
C3018       C  0.47462485  0.76895983  0.51935953     0.02100
H3019       H  0.52645613  0.72683830  0.52532929     0.15100
H3020       H  0.47790242  0.81109001  0.51794467     0.15100
C3021       C  0.44644378  0.77047505  0.51633803     0.36700
C3022       C  0.55800471  0.76731303  0.52371463     0.36600
N3023       N  0.42389185  0.77180412  0.51366127    -0.43600
N3024       N  0.58070335  0.76602004  0.52452714    -0.43600
C3025       C  0.45245027  0.64286178  0.46922026     0.00000
C3026       C  0.44965416  0.65554900  0.44510290    -0.11900
C3027       C  0.45427779  0.64194809  0.42157045     0.02200
C3028       C  0.46175533  0.61505935  0.42209522    -0.00100
C3029       C  0.46263519  0.60210189  0.44626600    -0.11800
C3030       C  0.45810645  0.61568079  0.46965551     0.02100
H3031       H  0.44487990  0.67629900  0.44467733     0.15100
H3032       H  0.46775393  0.58144425  0.44703459     0.15100
C3033       C  0.45933309  0.60115576  0.49393559     0.36700
C3034       C  0.45111809  0.65616605  0.39731579     0.36600
N3035       N  0.46026788  0.58946225  0.51333342    -0.43600
N3036       N  0.44851051  0.66763846  0.37793286    -0.43600
C3037       C  0.40669165  0.61421697  0.56197866     0.00000
C3038       C  0.37948575  0.61431849  0.55639586    -0.11900
C3039       C  0.36355690  0.59270868  0.56229599     0.02200
C3040       C  0.37468894  0.57048741  0.57414544    -0.00100
C3041       C  0.40143399  0.57061298  0.58079950    -0.11800
C3042       C  0.41744024  0.59219506  0.57505607     0.02100
H3043       H  0.37063563  0.63102792  0.54665614     0.15100
H3044       H  0.41004980  0.55333907  0.58980166     0.15100
C3045       C  0.44474524  0.59084377  0.58262065     0.36700
C3046       C  0.33618379  0.59319903  0.55485740     0.36600
N3047       N  0.46660229  0.58962884  0.58878595    -0.43600
N3048       N  0.31424155  0.59354012  0.54889661    -0.43600
C3049       C  0.68476589  0.42352820  0.06491533     0.00000
C3050       C  0.66531383  0.40508369  0.05845738    -0.11900
C3051       C  0.66840212  0.37849223  0.06462956     0.02200
C3052       C  0.69153586  0.36992444  0.07738210    -0.00100
C3053       C  0.71168401  0.38828004  0.08213088    -0.11800
C3054       C  0.70850306  0.41479341  0.07608856     0.02100
H3055       H  0.64704705  0.41163374  0.04964090     0.15100
H3056       H  0.72994519  0.38208787  0.09118965     0.15100
C3057       C  0.73001038  0.43250857  0.08135990     0.36700
C3058       C  0.64705352  0.36091584  0.05850955     0.36600
N3059       N  0.74728034  0.44666246  0.08550111    -0.43600
N3060       N  0.62984242  0.34696462  0.05352544    -0.43600
C3061       C  0.57982430  0.70675756  0.16701411     0.00000
C3062       C  0.55433944  0.70482597  0.15703274    -0.11900
C3063       C  0.55006961  0.70349143  0.12995986     0.02200
C3064       C  0.57174650  0.70363553  0.11242082    -0.00100
C3065       C  0.59723221  0.70595834  0.12261492    -0.11800
C3066       C  0.60141394  0.70741671  0.14965885     0.02100
H3067       H  0.53774363  0.70480760  0.17040044     0.15100
H3068       H  0.61402931  0.70556378  0.10951872     0.15100
C3069       C  0.62813865  0.70812557  0.15922698     0.36700
C3070       C  0.52320385  0.70246408  0.12086001     0.36600
N3071       N  0.64953222  0.70852103  0.16691467    -0.43600
N3072       N  0.50165793  0.70167419  0.11363676    -0.43600
C3073       C  0.52419619  0.75070044  0.02368836     0.00000
C3074       C  0.53813339  0.77398477  0.02879396    -0.11900
C3075       C  0.52571704  0.79853350  0.02843038     0.02200
C3076       C  0.49864814  0.80031013  0.02240298    -0.00100
C3077       C  0.48500811  0.77703810  0.01617604    -0.11800
C3078       C  0.49738749  0.75245603  0.01696132     0.02100
H3079       H  0.55876590  0.77299214  0.03405800     0.15100
H3080       H  0.46426324  0.77783643  0.01138130     0.15100
C3081       C  0.48207680  0.72948248  0.01064537     0.36700
C3082       C  0.54125847  0.82125910  0.03512955     0.36600
N3083       N  0.46973837  0.71111438  0.00556789    -0.43600
N3084       N  0.55377903  0.83938878  0.04061837    -0.43600
C3085       C  0.60709604  0.61897140  0.04955070     0.00000
C3086       C  0.60276237  0.60280802  0.07128520    -0.11900
C3087       C  0.61737106  0.57974484  0.07462298     0.02200
C3088       C  0.63613167  0.57231668  0.05558835    -0.00100
C3089       C  0.64045842  0.58844574  0.03387251    -0.11800
C3090       C  0.62643908  0.61184194  0.03088087     0.02100
H3091       H  0.58797614  0.60821698  0.08565336     0.15100
H3092       H  0.65454196  0.58250461  0.01900598     0.15100
C3093       C  0.63134184  0.62741650  0.00774951     0.36700
C3094       C  0.61183990  0.56341784  0.09703288     0.36600
N3095       N  0.63528468  0.63992053  0.98925805    -0.43600
N3096       N  0.60737729  0.55042805  0.11505709    -0.43600
C3097       C  0.35683912  0.45204012  0.19710825     0.00000
C3098       C  0.36398458  0.47602702  0.18597244    -0.11900
C3099       C  0.39041095  0.48294937  0.18323061     0.02200
C3100       C  0.41047810  0.46536393  0.19151583    -0.00100
C3101       C  0.40315899  0.44163067  0.20328964    -0.11800
C3102       C  0.37672904  0.43479405  0.20603748     0.02100
H3103       H  0.34883310  0.48946353  0.17936469     0.15100
H3104       H  0.41812771  0.42781709  0.20953778     0.15100
C3105       C  0.37078764  0.40921080  0.21661335     0.36700
C3106       C  0.39594610  0.50808692  0.17144591     0.36600
N3107       N  0.36609378  0.38866514  0.22498449    -0.43600
N3108       N  0.40017344  0.52823864  0.16194330    -0.43600
C3109       C  0.50037675  0.51274105  0.23878004     0.00000
C3110       C  0.49857108  0.54022993  0.24004611    -0.11900
C3111       C  0.49838300  0.55363044  0.26415255     0.02200
C3112       C  0.49997716  0.53951662  0.28807325    -0.00100
C3113       C  0.50284982  0.51214414  0.28680810    -0.11800
C3114       C  0.50318246  0.49874175  0.26269175     0.02100
H3115       H  0.49649457  0.55138821  0.22208501     0.15100
H3116       H  0.50423085  0.50099352  0.30484266     0.15100
C3117       C  0.50527570  0.47049268  0.26349935     0.36700
C3118       C  0.49495817  0.58176861  0.26347779     0.36600
N3119       N  0.50694349  0.44785622  0.26431474    -0.43600
N3120       N  0.49216180  0.60430309  0.26280693    -0.43600
C3121       C  0.55585645  0.48065899  0.13459350     0.00000
C3122       C  0.55416847  0.49444637  0.11075401    -0.11900
C3123       C  0.57559149  0.49628288  0.09377331     0.02200
C3124       C  0.59968481  0.48451828  0.10065383    -0.00100
C3125       C  0.60146039  0.47041547  0.12428268    -0.11800
C3126       C  0.57968647  0.46802117  0.14104790     0.02100
H3127       H  0.53586864  0.50386831  0.10518674     0.15100
H3128       H  0.61997225  0.46133412  0.12970966     0.15100
C3129       C  0.58260633  0.45317915  0.16492466     0.36700
C3130       C  0.57264981  0.51169820  0.07020205     0.36600
N3131       N  0.58503340  0.44118107  0.18400758    -0.43600
N3132       N  0.57029041  0.52415090  0.05140169    -0.43600
C3133       C  0.44413607  0.33814436  0.91723724     0.00000
C3134       C  0.45429197  0.35441096  0.89749614    -0.11900
C3135       C  0.45029050  0.34886146  0.87097658     0.02200
C3136       C  0.43556961  0.32652518  0.86358567    -0.00100
C3137       C  0.42650967  0.30953747  0.88340467    -0.11800
C3138       C  0.43076933  0.31507673  0.91000058     0.02100
H3139       H  0.46493800  0.37206628  0.90279055     0.15100
H3140       H  0.41570479  0.29197095  0.87820503     0.15100
C3141       C  0.42200072  0.29638555  0.92931505     0.36700
C3142       C  0.46125285  0.36685166  0.85208339     0.36600
N3143       N  0.41517289  0.28125769  0.94474725    -0.43600
N3144       N  0.47013761  0.38130942  0.83705159    -0.43600
C3145       C  0.49362056  0.29819015  0.00611304     0.00000
C3146       C  0.52120759  0.29757045  0.00593206    -0.11900
C3147       C  0.53507312  0.27369469  0.00573409     0.02200
C3148       C  0.52126503  0.24951867  0.00531180    -0.00100
C3149       C  0.49374703  0.25018604  0.00674170    -0.11800
C3150       C  0.47990577  0.27396395  0.00728905     0.02100
H3151       H  0.53206407  0.31584522  0.00531154     0.15100
H3152       H  0.48281272  0.23194042  0.00682146     0.15100
C3153       C  0.45155234  0.27246158  0.00781074     0.36700
C3154       C  0.56341091  0.27491099  0.00490460     0.36600
N3155       N  0.42885405  0.27108359  0.00826727    -0.43600
N3156       N  0.58611912  0.27604243  0.00431584    -0.43600
C3157       C  0.46088697  0.40212709  0.05987881     0.00000
C3158       C  0.46865276  0.42845732  0.05726700    -0.11900
C3159       C  0.47190073  0.44471997  0.07917399     0.02200
C3160       C  0.46775200  0.43456184  0.10455002    -0.00100
C3161       C  0.45936558  0.40833554  0.10712117    -0.11800
C3162       C  0.45564862  0.39221227  0.08506952     0.02100
H3163       H  0.47236297  0.43638613  0.03789622     0.15100
H3164       H  0.45600574  0.40026526  0.12648349     0.15100
C3165       C  0.44776494  0.36531064  0.08888957     0.36700
C3166       C  0.48070654  0.47129670  0.07495340     0.36600
N3167       N  0.44147044  0.34372938  0.09194223    -0.43600
N3168       N  0.48773240  0.49258732  0.07148379    -0.43600
C3169       C  0.32162293  0.67582864  0.94662855     0.00000
C3170       C  0.34758287  0.66700496  0.94949665    -0.11900
C3171       C  0.35311651  0.64031721  0.95197598     0.02200
C3172       C  0.33238620  0.62200548  0.95191437    -0.00100
C3173       C  0.30641075  0.63066958  0.94971268    -0.11800
C3174       C  0.30080978  0.65740770  0.94725664     0.02100
H3175       H  0.36372401  0.68083237  0.94851511     0.15100
H3176       H  0.29050554  0.61653351  0.95009313     0.15100
C3177       C  0.27356225  0.66527488  0.94565824     0.36700
C3178       C  0.38031450  0.63207776  0.95275599     0.36600
N3179       N  0.25171503  0.67151978  0.94439411    -0.43600
N3180       N  0.40209615  0.62549450  0.95317628    -0.43600
C3181       C  0.37940396  0.47321932  0.96261170     0.00000
C3182       C  0.37551667  0.45866204  0.98550219    -0.11900
C3183       C  0.39062950  0.43639674  0.99069863     0.02200
C3184       C  0.41033076  0.42839078  0.97280464    -0.00100
C3185       C  0.41410101  0.44277945  0.94968443    -0.11800
C3186       C  0.39869788  0.46504915  0.94439909     0.02100
H3187       H  0.36120826  0.46530047  0.99986105     0.15100
H3188       H  0.42917301  0.43673375  0.93587880     0.15100
C3189       C  0.40426567  0.48019458  0.92116510     0.36700
C3190       C  0.38666849  0.42319804  0.01543313     0.36600
N3191       N  0.40876309  0.49240911  0.90260767    -0.43600
N3192       N  0.38356738  0.41268693  0.03527643    -0.43600
C3193       C  0.60916604  0.58519526  0.83046241     0.00000
C3194       C  0.62816373  0.57013008  0.84382109    -0.11900
C3195       C  0.65501365  0.57355614  0.83940010     0.02200
C3196       C  0.66349572  0.59234928  0.82104849    -0.00100
C3197       C  0.64448061  0.60656935  0.80679643    -0.11800
C3198       C  0.61758844  0.60324310  0.81135098     0.02100
H3199       H  0.62213383  0.55597052  0.85845877     0.15100
H3200       H  0.65057840  0.62100320  0.79245910     0.15100
C3201       C  0.59929635  0.61867279  0.79614928     0.36700
C3202       C  0.67319061  0.55758685  0.85419115     0.36600
N3203       N  0.58469392  0.63105180  0.78391172    -0.43600
N3204       N  0.68765855  0.54475644  0.86611986    -0.43600
C3205       C  0.51827407  0.53534288  0.79069554     0.00000
C3206       C  0.52139242  0.50795249  0.79097670    -0.11900
C3207       C  0.52097838  0.49318262  0.76775279     0.02200
C3208       C  0.51768505  0.50582215  0.74324071    -0.00100
C3209       C  0.51342730  0.53302277  0.74299109    -0.11800
C3210       C  0.51333528  0.54776008  0.76626677     0.02100
H3211       H  0.52490732  0.49797716  0.80940748     0.15100
H3212       H  0.51040012  0.54293259  0.72443398     0.15100
C3213       C  0.50865878  0.57563599  0.76406794     0.36700
C3214       C  0.52532905  0.46524521  0.76981910     0.36600
N3215       N  0.50477069  0.59793690  0.76216125    -0.43600
N3216       N  0.52876229  0.44286079  0.77157595    -0.43600
C3217       C  0.46523780  0.57097854  0.89224904     0.00000
C3218       C  0.44146146  0.57978618  0.88150770    -0.11900
C3219       C  0.41777326  0.57657128  0.89518988     0.02200
C3220       C  0.41773855  0.56421665  0.92002514    -0.00100
C3221       C  0.44168096  0.55692754  0.93136830    -0.11800
C3222       C  0.46528935  0.56030936  0.91790040     0.02100
H3223       H  0.44131000  0.58873500  0.86224111     0.15100
H3224       H  0.44194699  0.54801334  0.95066089     0.15100
C3225       C  0.48930202  0.55327455  0.93134329     0.36700
C3226       C  0.39396545  0.58684364  0.88367416     0.36600
N3227       N  0.50847498  0.54772224  0.94222721    -0.43600
N3228       N  0.37489734  0.59524695  0.87457232    -0.43600
C3229       C  0.55461219  0.62112144  0.91897842     0.00000
C3230       C  0.55651548  0.60856491  0.94329664    -0.11900
C3231       C  0.55938906  0.62296186  0.96641167     0.02200
C3232       C  0.56088049  0.65065588  0.96558189    -0.00100
C3233       C  0.56066713  0.66331143  0.94128331    -0.11800
C3234       C  0.55734154  0.64886389  0.91801755     0.02100
H3235       H  0.55475724  0.58739242  0.94445723     0.15100
H3236       H  0.56202964  0.68453271  0.94055474     0.15100
C3237       C  0.55657114  0.66315922  0.89362616     0.36700
C3238       C  0.56049730  0.60861069  0.99078768     0.36600
N3239       N  0.55590255  0.67468741  0.87411656    -0.43600
N3240       N  0.56123397  0.59672911  0.01007531    -0.43600
C3241       C  0.08045108  0.71344567  0.35874553     0.00000
C3242       C  0.05630030  0.70318583  0.36675747    -0.11900
C3243       C  0.05060596  0.69963348  0.39330161     0.02200
C3244       C  0.06972649  0.70587830  0.41265142    -0.00100
C3245       C  0.09364385  0.71690124  0.40454683    -0.11800
C3246       C  0.09911857  0.72078683  0.37793642     0.02100
H3247       H  0.04169744  0.69797165  0.35215790     0.15100
H3248       H  0.10851994  0.72179588  0.41896292     0.15100
C3249       C  0.12461171  0.73102771  0.37093457     0.36700
C3250       C  0.02491704  0.68944362  0.39968144     0.36600
N3251       N  0.14504680  0.73922485  0.36535283    -0.43600
N3252       N  0.00427613  0.68131853  0.40458483    -0.43600
C3253       C  0.99851339  0.80077803  0.50787323     0.00000
C3254       C  0.98337778  0.77768642  0.50925577    -0.11900
C3255       C  0.99503496  0.75273989  0.50765017     0.02200
C3256       C  0.02254252  0.75039318  0.50468880    -0.00100
C3257       C  0.03779412  0.77342201  0.50525571    -0.11800
C3258       C  0.02616900  0.79834059  0.50678705     0.02100
H3259       H  0.96214372  0.77902481  0.51053997     0.15100
H3260       H  0.05900207  0.77210828  0.50354461     0.15100
C3261       C  0.04324846  0.82093050  0.50682929     0.36700
C3262       C  0.97819502  0.73002689  0.50900932     0.36600
N3263       N  0.05702487  0.83896599  0.50687642    -0.43600
N3264       N  0.96465274  0.71185685  0.51018091    -0.43600
C3265       C  0.16149361  0.59002992  0.70159972     0.00000
C3266       C  0.14261771  0.59848147  0.72004602    -0.11900
C3267       C  0.11577677  0.59527274  0.71547272     0.02200
C3268       C  0.10733988  0.58360682  0.69193084    -0.00100
C3269       C  0.12608568  0.57358605  0.67429358    -0.11800
C3270       C  0.15296338  0.57654932  0.67891966     0.02100
H3271       H  0.14872814  0.60812430  0.73800575     0.15100
H3272       H  0.11972431  0.56402662  0.65636169     0.15100
C3273       C  0.17103978  0.56589130  0.65979563     0.36700
C3274       C  0.09742175  0.60342968  0.73553872     0.36600
N3275       N  0.18546016  0.55723107  0.64447825    -0.43600
N3276       N  0.08269721  0.60973851  0.75168079    -0.43600
C3277       C  0.05583883  0.64783362  0.55748447     0.00000
C3278       C  0.06264700  0.65911050  0.58157729    -0.11900
C3279       C  0.06000758  0.64483138  0.60490196     0.02200
C3280       C  0.05054966  0.61866441  0.60420913    -0.00100
C3281       C  0.04544024  0.60695765  0.57988850    -0.11800
C3282       C  0.04801113  0.62118572  0.55667677     0.02100
H3283       H  0.06936848  0.67927952  0.58225576     0.15100
H3284       H  0.03865986  0.58681188  0.57900115     0.15100
C3285       C  0.04297838  0.60767383  0.53223025     0.36700
C3286       C  0.06748170  0.65746464  0.62914493     0.36600
N3287       N  0.03900578  0.59680993  0.51267803    -0.43600
N3288       N  0.07354278  0.66760659  0.64854376    -0.43600
C3289       C  0.18478831  0.42463884  0.45207296     0.00000
C3290       C  0.16658041  0.40569526  0.46043331    -0.11900
C3291       C  0.17033322  0.37901232  0.45506012     0.02200
C3292       C  0.19307284  0.37073694  0.44141163    -0.00100
C3293       C  0.21154445  0.38978245  0.43362451    -0.11800
C3294       C  0.20754288  0.41644267  0.43862779     0.02100
H3295       H  0.14886614  0.41181777  0.47061147     0.15100
H3296       H  0.22920267  0.38396533  0.42319014     0.15100
C3297       C  0.22731721  0.43481308  0.43004500     0.36700
C3298       C  0.15016162  0.36092993  0.46328564     0.36600
N3299       N  0.24313950  0.44953329  0.42313720    -0.43600
N3300       N  0.13386873  0.34655828  0.46983495    -0.43600
C3301       C  0.22934815  0.51110038  0.50758558     0.00000
C3302       C  0.22817314  0.50814629  0.53496308    -0.11900
C3303       C  0.25104080  0.50813983  0.55042446     0.02200
C3304       C  0.27607439  0.51135546  0.53859253    -0.00100
C3305       C  0.27720679  0.51500180  0.51136779    -0.11800
C3306       C  0.25441025  0.51488056  0.49588937     0.02100
H3307       H  0.20931412  0.50509851  0.54437062     0.15100
H3308       H  0.29615611  0.51742169  0.50193885     0.15100
C3309       C  0.25784153  0.51759645  0.46792136     0.36700
C3310       C  0.24809540  0.50317995  0.57814505     0.36600
N3311       N  0.26077537  0.51969557  0.44552247    -0.43600
N3312       N  0.24563849  0.49907553  0.60031977    -0.43600
C3313       C  0.13357540  0.57195188  0.47050893     0.00000
C3314       C  0.12071797  0.58163976  0.44811115    -0.11900
C3315       C  0.10465512  0.60401258  0.44963205     0.02200
C3316       C  0.10196137  0.61728611  0.47370821    -0.00100
C3317       C  0.11530862  0.60798079  0.49588551    -0.11800
C3318       C  0.13070546  0.58528957  0.49459173     0.02100
H3319       H  0.12245110  0.57116334  0.42964532     0.15100
H3320       H  0.11336245  0.61832543  0.51441929     0.15100
C3321       C  0.14353779  0.57624341  0.51817113     0.36700
C3322       C  0.09148226  0.61320325  0.42632690     0.36600
N3323       N  0.15377411  0.56900850  0.53708918    -0.43600
N3324       N  0.08089146  0.62059662  0.40766641    -0.43600
C3325       C  0.90958194  0.46327005  0.34060465     0.00000
C3326       C  0.90055430  0.45689219  0.31555557    -0.11900
C3327       C  0.87371054  0.45401963  0.31064283     0.02200
C3328       C  0.85524199  0.45676556  0.33141510    -0.00100
C3329       C  0.86437617  0.46378872  0.35640751    -0.11800
C3330       C  0.89126976  0.46710102  0.36113733     0.02100
H3331       H  0.91454346  0.45447550  0.29966041     0.15100
H3332       H  0.85061629  0.46576855  0.37253799     0.15100
C3333       C  0.89964414  0.47295364  0.38757725     0.36700
C3334       C  0.86595773  0.44850433  0.28393510     0.36600
N3335       N  0.90639321  0.47756820  0.40875762    -0.43600
N3336       N  0.85984477  0.44410995  0.26251522    -0.43600
C3337       C  0.06003271  0.47591364  0.38183451     0.00000
C3338       C  0.06549351  0.45788140  0.40186950    -0.11900
C3339       C  0.08626655  0.46213514  0.41941383     0.02200
C3340       C  0.10227547  0.48453082  0.41662545    -0.00100
C3341       C  0.09755691  0.50182902  0.39573166    -0.11800
C3342       C  0.07642355  0.49791644  0.37864013     0.02100
H3343       H  0.05258524  0.44121918  0.40474723     0.15100
H3344       H  0.10995853  0.51892623  0.39322841     0.15100
C3345       C  0.07170429  0.51690066  0.35818125     0.36700
C3346       C  0.09079935  0.44316084  0.43989203     0.36600
N3347       N  0.06797002  0.53210715  0.34177805    -0.43600
N3348       N  0.09434145  0.42787008  0.45625484    -0.43600
C3349       C  0.94645734  0.34548147  0.61264916     0.00000
C3350       C  0.93262323  0.32263961  0.61872548    -0.11900
C3351       C  0.92657645  0.31645374  0.64473713     0.02200
C3352       C  0.93426743  0.33363710  0.66538634    -0.00100
C3353       C  0.94811371  0.35650297  0.65912064    -0.11800
C3354       C  0.95414476  0.36261063  0.63316140     0.02100
H3355       H  0.92664018  0.30947266  0.60308710     0.15100
H3356       H  0.95385237  0.37004980  0.67451484     0.15100
C3357       C  0.96707896  0.38733076  0.62821260     0.36700
C3358       C  0.91235846  0.29237543  0.64922976     0.36600
N3359       N  0.97738287  0.40715012  0.62426262    -0.43600
N3360       N  0.90096750  0.27305563  0.65265567    -0.43600
C3361       C  0.02428219  0.25005674  0.51936824     0.00000
C3362       C  0.03947467  0.27299200  0.52179132    -0.11900
C3363       C  0.02777157  0.29792153  0.52324932     0.02200
C3364       C  0.00009604  0.30045364  0.52242524    -0.00100
C3365       C  0.98505624  0.27765771  0.51799551    -0.11800
C3366       C  0.99680655  0.25273305  0.51637912     0.02100
H3367       H  0.06065871  0.27146319  0.52360173     0.15100
H3368       H  0.96384490  0.27911560  0.51653379     0.15100
C3369       C  0.98015876  0.23034822  0.51146267     0.36700
C3370       C  0.04480343  0.32041147  0.52565221     0.36600
N3371       N  0.96681663  0.21244840  0.50733638    -0.43600
N3372       N  0.05855108  0.33838190  0.52745195    -0.43600
C3373       C  0.97196479  0.40193251  0.46871092     0.00000
C3374       C  0.95362332  0.39829359  0.44841952    -0.11900
C3375       C  0.95497561  0.41312270  0.42539252     0.02200
C3376       C  0.97450300  0.43247675  0.42267975    -0.00100
C3377       C  0.99281037  0.43625968  0.44268220    -0.11800
C3378       C  0.99209275  0.42099795  0.46536818     0.02100
H3379       H  0.93810307  0.38391394  0.45052194     0.15100
H3380       H  0.00831464  0.45063134  0.44015510     0.15100
C3381       C  0.01261068  0.42544636  0.48445175     0.36700
C3382       C  0.93583685  0.40852580  0.40498838     0.36600
N3383       N  0.02923107  0.42905675  0.49951815    -0.43600
N3384       N  0.92055286  0.40487842  0.38858728    -0.43600
C3385       C  0.81790335  0.67550109  0.58811096     0.00000
C3386       C  0.80736487  0.65773205  0.60637312    -0.11900
C3387       C  0.81080725  0.63055126  0.60344478     0.02200
C3388       C  0.82483477  0.62063306  0.58163362    -0.00100
C3389       C  0.83458956  0.63854717  0.56300458    -0.11800
C3390       C  0.83138162  0.66559332  0.56606445     0.02100
H3391       H  0.79691200  0.66512171  0.62340656     0.15100
H3392       H  0.84531903  0.63152136  0.54599762     0.15100
C3393       C  0.84178765  0.68259302  0.54596473     0.36700
C3394       C  0.79992897  0.61356242  0.62325151     0.36600
N3395       N  0.85011534  0.69620148  0.52986098    -0.43600
N3396       N  0.79118118  0.60003488  0.63919977    -0.43600
C3397       C  0.77910308  0.53124726  0.53490553     0.00000
C3398       C  0.77721538  0.52002796  0.50984569    -0.11900
C3399       C  0.75288227  0.51830862  0.49683815     0.02200
C3400       C  0.72988867  0.52931258  0.50831703    -0.00100
C3401       C  0.73172010  0.53943831  0.53388810    -0.11800
C3402       C  0.75578090  0.54017824  0.54728021     0.02100
H3403       H  0.79476837  0.51230331  0.50050802     0.15100
H3404       H  0.71440832  0.54761583  0.54328388     0.15100
C3405       C  0.75602057  0.55145900  0.57330223     0.36700
C3406       C  0.75212758  0.50439771  0.47215441     0.36600
N3407       N  0.75613741  0.56035104  0.59420559    -0.43600
N3408       N  0.75155246  0.49287194  0.45257949    -0.43600
C3409       C  0.88479462  0.47632101  0.56446492     0.00000
C3410       C  0.91146013  0.47960132  0.55792705    -0.11900
C3411       C  0.92825493  0.45806357  0.55450162     0.02200
C3412       C  0.91832848  0.43239275  0.55715323    -0.00100
C3413       C  0.89180093  0.42912004  0.56450859    -0.11800
C3414       C  0.87513451  0.45080902  0.56849177     0.02100
H3415       H  0.91921349  0.49922767  0.55523345     0.15100
H3416       H  0.88394319  0.40950394  0.56684195     0.15100
C3417       C  0.84801620  0.44635140  0.57539334     0.36700
C3418       C  0.95516118  0.46295734  0.54694871     0.36600
N3419       N  0.82626412  0.44277875  0.58093452    -0.43600
N3420       N  0.97671962  0.46689179  0.54090971    -0.43600
C3421       C  0.91358662  0.56299573  0.61140245     0.00000
C3422       C  0.92609765  0.58742998  0.60946025    -0.11900
C3423       C  0.94865438  0.59287118  0.62437295     0.02200
C3424       C  0.95894973  0.57351385  0.64128685    -0.00100
C3425       C  0.94621946  0.54926992  0.64331916    -0.11800
C3426       C  0.92374549  0.54388239  0.62866711     0.02100
H3427       H  0.91827697  0.60219613  0.59630505     0.15100
H3428       H  0.95441036  0.53411780  0.65582877     0.15100
C3429       C  0.91243509  0.51795886  0.63055224     0.36700
C3430       C  0.96179698  0.61767509  0.62075737     0.36600
N3431       N  0.90348016  0.49716062  0.63199315    -0.43600
N3432       N  0.97242059  0.63750444  0.61782552    -0.43600
C3433       C  0.95058453  0.70031823  0.91259303     0.00000
C3434       C  0.95875947  0.68257895  0.89309685    -0.11900
C3435       C  0.95526210  0.68809577  0.86651664     0.02200
C3436       C  0.94332663  0.71199140  0.85894681    -0.00100
C3437       C  0.93645086  0.73032800  0.87857089    -0.11800
C3438       C  0.93995984  0.72469702  0.90517609     0.02100
H3439       H  0.96725410  0.66385759  0.89867394     0.15100
H3440       H  0.92776556  0.74901004  0.87322014     0.15100
C3441       C  0.93318695  0.74448779  0.92435874     0.36700
C3442       C  0.96341042  0.66838486  0.84778089     0.36600
N3443       N  0.92793226  0.76040620  0.93972787    -0.43600
N3444       N  0.96999605  0.65251220  0.83287698    -0.43600
C3445       C  0.99948115  0.74136258  0.00250724     0.00000
C3446       C  0.02704662  0.74168573  0.00062685    -0.11900
C3447       C  0.04117555  0.76534150  0.00179433     0.02200
C3448       C  0.02768343  0.78955080  0.00474543    -0.00100
C3449       C  0.00030876  0.78913240  0.00764141    -0.11800
C3450       C  0.98619573  0.76561022  0.00668745     0.02100
H3451       H  0.03763789  0.72344562  0.99754001     0.15100
H3452       H  0.98969349  0.80746121  0.01015894     0.15100
C3453       C  0.95795880  0.76753511  0.00910589     0.36700
C3454       C  0.06933717  0.76410443  0.99848415     0.36600
N3455       N  0.93535334  0.76925742  0.01103689    -0.43600
N3456       N  0.09190468  0.76299073  0.99583630    -0.43600
C3457       C  0.91061544  0.58234925  0.19486445     0.00000
C3458       C  0.90398121  0.60731505  0.20446500    -0.11900
C3459       C  0.87790440  0.61399692  0.20969838     0.02200
C3460       C  0.85780375  0.59535671  0.20559264    -0.00100
C3461       C  0.86432793  0.57014926  0.19685326    -0.11800
C3462       C  0.89046843  0.56337635  0.19166390     0.02100
H3463       H  0.91906281  0.62212769  0.20688427     0.15100
H3464       H  0.84893560  0.55570930  0.19407607     0.15100
C3465       C  0.89573326  0.53683390  0.18311324     0.36700
C3466       C  0.87223037  0.64072451  0.21744954     0.36600
N3467       N  0.89976590  0.51552823  0.17627295    -0.43600
N3468       N  0.86772346  0.66217314  0.22349708    -0.43600
C3469       C  0.99746123  0.53279944  0.23678944     0.00000
C3470       C  0.00221330  0.50572121  0.23800980    -0.11900
C3471       C  0.00263282  0.49251714  0.26213588     0.02200
C3472       C  0.99756099  0.50645870  0.28578108    -0.00100
C3473       C  0.99360987  0.53367225  0.28445527    -0.11800
C3474       C  0.99356073  0.54686392  0.26048101     0.02100
H3475       H  0.00544124  0.49478058  0.22001691     0.15100
H3476       H  0.98986028  0.54477816  0.30224435     0.15100
C3477       C  0.98786330  0.57465878  0.26093638     0.36700
C3478       C  0.00793794  0.46466837  0.26168154     0.36600
N3479       N  0.98328327  0.59691147  0.26137369    -0.43600
N3480       N  0.01233762  0.44237882  0.26116442    -0.43600
C3481       C  0.96324752  0.64070381  0.05672385     0.00000
C3482       C  0.96179769  0.65383925  0.08076972    -0.11900
C3483       C  0.96430257  0.64003727  0.10437044     0.02200
C3484       C  0.96765900  0.61235033  0.10404170    -0.00100
C3485       C  0.96782660  0.59922338  0.07984221    -0.11800
C3486       C  0.96590417  0.61309540  0.05633207     0.02100
H3487       H  0.95955698  0.67501351  0.08108593     0.15100
H3488       H  0.97030148  0.57808575  0.07918295     0.15100
C3489       C  0.96637601  0.59840655  0.03204945     0.36700
C3490       C  0.96355740  0.65498674  0.12845522     0.36600
N3491       N  0.96675313  0.58652586  0.01268144    -0.43600
N3492       N  0.96310007  0.66709341  0.14768195    -0.43600
C3493       C  0.18382413  0.62102398  0.06966358     0.00000
C3494       C  0.17149398  0.63936611  0.05298300    -0.11900
C3495       C  0.17401279  0.66639988  0.05713015     0.02200
C3496       C  0.18923427  0.67552822  0.07827178    -0.00100
C3497       C  0.20207389  0.65720827  0.09447880    -0.11800
C3498       C  0.19961910  0.63031368  0.09041735     0.02100
H3499       H  0.15941153  0.63264642  0.03680783     0.15100
H3500       H  0.21387949  0.66386064  0.11090113     0.15100
C3501       C  0.21341501  0.61303609  0.10817145     0.36700
C3502       C  0.16111321  0.68414639  0.03923203     0.36600
N3503       N  0.22452686  0.59934138  0.12247326    -0.43600
N3504       N  0.15079423  0.69833881  0.02483200    -0.43600
C3505       C  0.28194909  0.53330229  0.99463394     0.00000
C3506       C  0.28119434  0.53424251  0.02213313    -0.11900
C3507       C  0.25734791  0.53466073  0.03579423     0.02200
C3508       C  0.23321494  0.53362267  0.02195084    -0.00100
C3509       C  0.23389562  0.53189211  0.99448067    -0.11800
C3510       C  0.25781735  0.53182744  0.98076098     0.02100
H3511       H  0.29938599  0.53558071  0.03313439     0.15100
H3512       H  0.21560946  0.53123663  0.98357436     0.15100
C3513       C  0.25666297  0.53168885  0.95246636     0.36700
C3514       C  0.25851665  0.53808377  0.06390511     0.36600
N3515       N  0.25559328  0.53171305  0.92979773    -0.43600
N3516       N  0.25952672  0.54103457  0.08639066    -0.43600
C3517       C  0.05444594  0.56188294  0.13430984     0.00000
C3518       C  0.05339776  0.54824530  0.11030111    -0.11900
C3519       C  0.07540614  0.54626210  0.09408405     0.02200
C3520       C  0.09914101  0.55813748  0.10174075    -0.00100
C3521       C  0.10043053  0.57150728  0.12585672    -0.11800
C3522       C  0.07830068  0.57359637  0.14210368     0.02100
H3523       H  0.03520421  0.53914492  0.10400857     0.15100
H3524       H  0.11884792  0.58019354  0.13208819     0.15100
C3525       C  0.08090979  0.58690156  0.16699263     0.36700
C3526       C  0.07352592  0.53060129  0.07049668     0.36600
N3527       N  0.08299963  0.59746564  0.18699692    -0.43600
N3528       N  0.07217731  0.51791606  0.05169200    -0.43600
C3529       C  0.82646011  0.42107214  0.94959201     0.00000
C3530       C  0.83406227  0.40291044  0.96898334    -0.11900
C3531       C  0.82942974  0.37601736  0.96590695     0.02200
C3532       C  0.81713190  0.36676689  0.94294770    -0.00100
C3533       C  0.80839949  0.38489605  0.92418165    -0.11800
C3534       C  0.81285401  0.41176533  0.92723813     0.02100
H3535       H  0.84394811  0.40963562  0.98658231     0.15100
H3536       H  0.79867500  0.37798189  0.90654746     0.15100
C3537       C  0.80365318  0.42895881  0.90671189     0.36700
C3538       C  0.83674504  0.35849857  0.98691014     0.36600
N3539       N  0.79618444  0.44262214  0.89021123    -0.43600
N3540       N  0.84238476  0.34444474  0.00379738    -0.43600
C3541       C  0.78204066  0.51240002  0.99476735     0.00000
C3542       C  0.75898066  0.51290558  0.97955147    -0.11900
C3543       C  0.73405150  0.51334346  0.99128222     0.02200
C3544       C  0.73179856  0.51326041  0.01891970    -0.00100
C3545       C  0.75490225  0.51472663  0.03401608    -0.11800
C3546       C  0.77977344  0.51432151  0.02231144     0.02100
H3547       H  0.76033340  0.51196119  0.95834767     0.15100
H3548       H  0.75366828  0.51523130  0.05524020     0.15100
C3549       C  0.80251675  0.51580835  0.03919061     0.36700
C3550       C  0.71130472  0.51378405  0.97436897     0.36600
N3551       N  0.82069659  0.51705563  0.05276594    -0.43600
N3552       N  0.69317622  0.51424800  0.96067501    -0.43600
C3553       C  0.88210388  0.56755048  0.96345942     0.00000
C3554       C  0.88175133  0.58101972  0.98742649    -0.11900
C3555       C  0.89746604  0.60309189  0.99141921     0.02200
C3556       C  0.91436503  0.61184476  0.97129566    -0.00100
C3557       C  0.91487320  0.59840360  0.94728145    -0.11800
C3558       C  0.89872474  0.57647565  0.94312764     0.02100
H3559       H  0.86947518  0.57394811  0.00329463     0.15100
H3560       H  0.92780663  0.60508323  0.93178014     0.15100
C3561       C  0.90072922  0.56261806  0.91847013     0.36700
C3562       C  0.89683902  0.61562446  0.01686644     0.36600
N3563       N  0.90240933  0.55148239  0.89873194    -0.43600
N3564       N  0.89635291  0.62558249  0.03728057    -0.43600
C3565       C  0.08147718  0.33271220  0.15974835     0.00000
C3566       C  0.06876878  0.35602226  0.15250988    -0.11900
C3567       C  0.06445130  0.36209881  0.12622341     0.02200
C3568       C  0.07237013  0.34432622  0.10634990    -0.00100
C3569       C  0.08506859  0.32102355  0.11335452    -0.11800
C3570       C  0.08972171  0.31502389  0.13972032     0.02100
H3571       H  0.06283346  0.37007011  0.16739941     0.15100
H3572       H  0.09130825  0.30741275  0.09817576     0.15100
C3573       C  0.10342097  0.29079488  0.14522248     0.36700
C3574       C  0.05330906  0.38752601  0.12029384     0.36600
N3575       N  0.11450576  0.27140003  0.14943991    -0.43600
N3576       N  0.04455089  0.40795948  0.11559602    -0.43600
C3577       C  0.99180331  0.24962167  0.02371169     0.00000
C3578       C  0.01899127  0.24978360  0.01924587    -0.11900
C3579       C  0.03298087  0.27335820  0.01742204     0.02200
C3580       C  0.01971173  0.29778367  0.02024129    -0.00100
C3581       C  0.99231704  0.29757858  0.02352621    -0.11800
C3582       C  0.97834144  0.27397984  0.02526176     0.02100
H3583       H  0.02955501  0.23132206  0.01773955     0.15100
H3584       H  0.98175623  0.31597671  0.02563919     0.15100
C3585       C  0.95042813  0.27565887  0.03016007     0.36700
C3586       C  0.06108503  0.27145609  0.01379254     0.36600
N3587       N  0.92807809  0.27714611  0.03414020    -0.43600
N3588       N  0.08359333  0.26974934  0.01093051    -0.43600
C3589       C  0.10298734  0.42916003  0.04558354     0.00000
C3590       C  0.10347311  0.44148505  0.07016870    -0.11900
C3591       C  0.11980160  0.46316442  0.07459942     0.02200
C3592       C  0.13550095  0.47294225  0.05396321    -0.00100
C3593       C  0.13494782  0.46047473  0.02945977    -0.11800
C3594       C  0.11910883  0.43860072  0.02519531     0.02100
H3595       H  0.09126513  0.43405695  0.08590994     0.15100
H3596       H  0.14655246  0.46822062  0.01340799     0.15100
C3597       C  0.11893785  0.42684012  0.99936938     0.36700
C3598       C  0.11903216  0.47579859  0.09996915     0.36600
N3599       N  0.11882491  0.41740904  0.97870258    -0.43600
N3600       N  0.11842803  0.48590301  0.12031003    -0.43600
C3601       C  0.16303875  0.46084709  0.82744520     0.00000
C3602       C  0.14460954  0.45421110  0.80790318    -0.11900
C3603       C  0.11791367  0.45939997  0.81114390     0.02200
C3604       C  0.10916284  0.47184523  0.83418193    -0.00100
C3605       C  0.12763922  0.48024945  0.85288028    -0.11800
C3606       C  0.15438972  0.47476944  0.84983685     0.02100
H3607       H  0.15085681  0.44409137  0.79023015     0.15100
H3608       H  0.12104796  0.49007438  0.87060704     0.15100
C3609       C  0.17205598  0.48282648  0.87049151     0.36700
C3610       C  0.10001864  0.45166355  0.79055205     0.36600
N3611       N  0.18608709  0.48931279  0.88713731    -0.43600
N3612       N  0.08567873  0.44545327  0.77406893    -0.43600
C3613       C  0.01898957  0.51871520  0.78858226     0.00000
C3614       C  0.01268663  0.50402943  0.76595836    -0.11900
C3615       C  0.01209044  0.51556981  0.74104250     0.02200
C3616       C  0.01788290  0.54244019  0.73823149    -0.00100
C3617       C  0.02258653  0.55748995  0.76090244    -0.11800
C3618       C  0.02320182  0.54601228  0.78584345     0.02100
H3619       H  0.00881745  0.48318257  0.76752913     0.15100
H3620       H  0.02683342  0.57825488  0.75908955     0.15100
C3621       C  0.02873383  0.56282555  0.80798502     0.36700
C3622       C  0.00507387  0.49945351  0.71880609     0.36600
N3623       N  0.03313449  0.57644896  0.82562930    -0.43600
N3624       N  0.99927285  0.48656371  0.70102113    -0.43600
C3625       C  0.96236039  0.48060306  0.88763312     0.00000
C3626       C  0.96174491  0.49506409  0.91116862    -0.11900
C3627       C  0.93948862  0.49545699  0.92704009     0.02200
C3628       C  0.91695083  0.48152251  0.91924068    -0.00100
C3629       C  0.91743509  0.46680331  0.89593236    -0.11800
C3630       C  0.94009531  0.46581286  0.88032749     0.02100
H3631       H  0.97886353  0.50607277  0.91742766     0.15100
H3632       H  0.90001186  0.45616760  0.88987333     0.15100
C3633       C  0.93970763  0.44992310  0.85686585     0.36700
C3634       C  0.93992518  0.51148132  0.95047774     0.36600
N3635       N  0.93939497  0.43703084  0.83815466    -0.43600
N3636       N  0.94036057  0.52435487  0.96920191    -0.43600
C3637       C  0.05273847  0.40047242  0.96243958     0.00000
C3638       C  0.04600248  0.42704026  0.96583869    -0.11900
C3639       C  0.04445999  0.44418698  0.94458025     0.02200
C3640       C  0.04936507  0.43472035  0.91900420    -0.00100
C3641       C  0.05671808  0.40820457  0.91567273    -0.11800
C3642       C  0.05869728  0.39115716  0.93714938     0.02100
H3643       H  0.04195938  0.43454132  0.98536781     0.15100
H3644       H  0.06061336  0.40063962  0.89615790     0.15100
C3645       C  0.06567165  0.36406513  0.93260467     0.36700
C3646       C  0.03674555  0.47102442  0.94968780     0.36600
N3647       N  0.07122585  0.34232706  0.92895323    -0.43600
N3648       N  0.03059803  0.49250671  0.95390607    -0.43600
loop_ 
_geom_bond_atom_site_label_1 
_geom_bond_atom_site_label_2 
_geom_bond_distance 
_geom_bond_site_symmetry_2 
_ccdc_geom_bond_type 
O1            V9   1.911       .  S
O1           C11   1.268       .  A
O2            V9   1.908       .  S
O2           C12   1.268       .  A
O3            V9   1.878       .  S
O3           C13   1.258       .  A
O4            V9   1.877       .  S
O4           C14   1.260   1_455  A
O5           V10   1.905   1_655  S
O5           C14   1.266       .  A
O6           V10   1.899       .  S
O6           C13   1.266       .  A
O7           V10   1.888       .  S
O7           C12   1.261       .  A
O8           V10   1.892       .  S
O8           C11   1.263       .  A
V9           V10   2.084       .  T
C11        C3613   1.494       .  S
C12        C3640   1.483       .  S
C13        C3604   1.470       .  S
C14        C3625   1.477       .  S
O15          V23   1.912       .  S
O15          C25   1.270       .  A
O16          V23   1.910       .  S
O16          C26   1.267       .  A
O17          V23   1.879       .  S
O17          C27   1.260   1_554  A
O18          V23   1.873       .  S
O18          C28   1.257       .  A
O19          V24   1.912       .  S
O19          C28   1.269       .  A
O20          V24   1.913   1_556  S
O20          C27   1.268       .  A
O21          V24   1.879       .  S
O21          C26   1.258       .  A
O22          V24   1.887       .  S
O22          C25   1.260       .  A
V23          V24   2.087       .  T
C25        C3580   1.493       .  S
C26        C3589   1.467       .  S
C27        C3637   1.477       .  S
C28        C3568   1.474       .  S
O29          V37   1.899       .  S
O29          C39   1.266       .  A
O30          V37   1.899       .  S
O30          C40   1.265       .  A
O31          V37   1.888       .  S
O31          C41   1.262       .  A
O32          V37   1.891       .  S
O32          C42   1.263       .  A
O33          V38   1.900       .  S
O33          C42   1.266       .  A
O34          V38   1.907       .  S
O34          C41   1.266       .  A
O35          V38   1.888       .  S
O35          C40   1.260       .  A
O36          V38   1.897       .  S
O36          C39   1.264       .  A
V37          V38   2.084       .  T
C39        C3541   1.486       .  S
C40        C3628   1.467       .  S
C41        C3553   1.475       .  S
C42        C3529   1.486       .  S
O43          V51   1.910       .  S
O43          C53   1.268       .  A
O44          V51   1.906       .  S
O44          C54   1.268       .  A
O45          V51   1.881       .  S
O45          C55   1.260       .  A
O46          V51   1.880       .  S
O46          C56   1.260       .  A
O47          V52   1.906       .  S
O47          C56   1.266       .  A
O48          V52   1.898       .  S
O48          C55   1.266       .  A
O49          V52   1.884       .  S
O49          C54   1.259       .  A
O50          V52   1.890       .  S
O50          C53   1.262       .  A
V51          V52   2.083       .  T
C53        C3508   1.489       .  S
C54        C3520   1.472       .  S
C55        C3493   1.480       .  S
C56        C3592   1.470       .  S
O57          V65   1.913       .  S
O57          C67   1.268       .  A
O58          V65   1.910       .  S
O58          C68   1.269       .  A
O59          V65   1.882   1_455  S
O59          C69   1.261       .  A
O60          V65   1.882       .  S
O60          C70   1.259       .  A
O61          V66   1.903       .  S
O61          C70   1.268       .  A
O62          V66   1.906   1_455  S
O62          C69   1.267       .  A
O63          V66   1.884       .  S
O63          C68   1.259       .  A
O64          V66   1.884   1_455  S
O64          C67   1.260   1_455  A
V65          V66   2.085       .  T
C67        C3469   1.484       .  S
C68        C3484   1.484       .  S
C69        C3517   1.478       .  S
C70        C3457   1.480       .  S
O71          V79   1.921       .  S
O71          C81   1.271       .  A
O72          V79   1.915       .  S
O72          C82   1.268       .  A
O73          V79   1.879       .  S
O73          C83   1.259       .  A
O74          V79   1.883   1_554  S
O74          C84   1.260       .  A
O75          V80   1.909   1_554  S
O75          C84   1.267       .  A
O76          V80   1.909       .  S
O76          C83   1.268       .  A
O77          V80   1.884       .  S
O77          C82   1.259       .  A
O78          V80   1.884   1_554  S
O78          C81   1.260   1_554  A
V79          V80   2.087       .  T
C81        C3445   1.497   1_556  S
C82        C3556   1.474       .  S
C83        C3433   1.474       .  S
C84        C3481   1.472       .  S
O85          V93   1.920       .  S
O85          C95   1.270       .  A
O86          V93   1.915       .  S
O86          C96   1.268       .  A
O87          V93   1.882       .  S
O87          C97   1.260       .  A
O88          V93   1.877       .  S
O88          C98   1.260       .  A
O89          V94   1.917       .  S
O89          C98   1.270       .  A
O90          V94   1.921       .  S
O90          C97   1.270       .  A
O91          V94   1.881       .  S
O91          C96   1.259       .  A
O92          V94   1.891       .  S
O92          C95   1.261       .  A
V93          V94   2.085       .  T
C95        C3397   1.491       .  S
C96        C3421   1.473       .  S
C97        C3409   1.482       .  S
C98        C3388   1.489       .  S
O99         V107   1.913       .  S
O99         C109   1.269       .  A
O100        V107   1.914       .  S
O100        C110   1.269       .  A
O101        V107   1.874       .  S
O101        C111   1.257       .  A
O102        V107   1.876       .  S
O102        C112   1.257       .  A
O103        V108   1.913       .  S
O103        C112   1.270       .  A
O104        V108   1.910       .  S
O104        C111   1.268       .  A
O105        V108   1.891       .  S
O105        C110   1.261       .  A
O106        V108   1.897       .  S
O106        C109   1.263       .  A
V107        V108   2.084       .  T
C109       C3364   1.497   1_655  S
C110       C3412   1.487       .  S
C111       C3349   1.475       .  S
C112       C3373   1.487       .  S
O113        V121   1.906       .  S
O113        C123   1.269       .  A
O114        V121   1.907       .  S
O114        C124   1.267       .  A
O115        V121   1.882   1_455  S
O115        C125   1.259       .  A
O116        V121   1.883       .  S
O116        C126   1.259       .  A
O117        V122   1.908       .  S
O117        C126   1.268       .  A
O118        V122   1.913   1_455  S
O118        C125   1.268       .  A
O119        V122   1.883       .  S
O119        C124   1.259       .  A
O120        V122   1.893       .  S
O120        C123   1.262       .  A
V121        V122   2.081       .  T
C123       C3472   1.491       .  S
C124       C3376   1.465       .  S
C125       C3337   1.470       .  S
C126       C3325   1.472       .  S
O127        V135   1.916       .  S
O127        C137   1.270       .  A
O128        V135   1.912       .  S
O128        C138   1.268       .  A
O129        V135   1.883       .  S
O129        C139   1.260       .  A
O130        V135   1.889       .  S
O130        C140   1.261       .  A
O131        V136   1.905       .  S
O131        C140   1.265       .  A
O132        V136   1.902       .  S
O132        C139   1.267       .  A
O133        V136   1.886       .  S
O133        C138   1.260       .  A
O134        V136   1.895       .  S
O134        C137   1.263       .  A
V135        V136   2.086       .  T
C137       C3301   1.500       .  S
C138       C3340   1.477       .  S
C139       C3289   1.477       .  S
C140       C3313   1.473       .  S
O141        V149   1.910       .  S
O141        C151   1.268       .  A
O142        V149   1.910       .  S
O142        C152   1.269       .  A
O143        V149   1.878       .  S
O143        C153   1.258       .  A
O144        V149   1.878       .  S
O144        C154   1.259   1_455  A
O145        V150   1.912   1_655  S
O145        C154   1.267       .  A
O146        V150   1.903       .  S
O146        C153   1.267       .  A
O147        V150   1.886       .  S
O147        C152   1.260       .  A
O148        V150   1.891       .  S
O148        C151   1.262       .  A
V149        V150   2.085       .  T
C151       C3616   1.486       .  S
C152       C3280   1.482       .  S
C153       C3268   1.471       .  S
C154       C3424   1.471       .  S
O155        V163   1.914       .  S
O155        C165   1.269       .  A
O156        V163   1.912       .  S
O156        C166   1.267       .  A
O157        V163   1.878       .  S
O157        C167   1.259       .  A
O158        V163   1.877       .  S
O158        C168   1.258       .  A
O159        V164   1.914       .  S
O159        C168   1.270       .  A
O160        V164   1.914       .  S
O160        C167   1.268       .  A
O161        V164   1.882       .  S
O161        C166   1.259       .  A
O162        V164   1.890       .  S
O162        C165   1.262       .  A
V163        V164   2.086       .  T
C165       C3256   1.492       .  S
C166       C3316   1.468       .  S
C167       C3277   1.477       .  S
C168       C3244   1.487       .  S
O169        V177   1.911       .  S
O169        C179   1.269       .  A
O170        V177   1.909       .  S
O170        C180   1.269       .  A
O171        V177   1.875       .  S
O171        C181   1.258       .  A
O172        V177   1.874       .  S
O172        C182   1.258       .  A
O173        V178   1.911       .  S
O173        C182   1.269       .  A
O174        V178   1.916       .  S
O174        C181   1.269       .  A
O175        V178   1.888       .  S
O175        C180   1.260       .  A
O176        V178   1.893       .  S
O176        C179   1.262       .  A
V177        V178   2.084       .  T
C179       C3205   1.495       .  S
C180       C3229   1.487       .  S
C181       C3217   1.479       .  S
C182       C3193   1.482       .  S
O183        V191   1.903       .  S
O183        C193   1.268       .  A
O184        V191   1.902       .  S
O184        C194   1.267       .  A
O185        V191   1.879       .  S
O185        C195   1.258       .  A
O186        V191   1.882       .  S
O186        C196   1.260       .  A
O187        V192   1.910       .  S
O187        C196   1.267       .  A
O188        V192   1.903       .  S
O188        C195   1.266       .  A
O189        V192   1.890       .  S
O189        C194   1.261       .  A
O190        V192   1.897       .  S
O190        C193   1.263       .  A
V191        V192   2.083       .  T
C193       C3505   1.491       .  S
C194       C3220   1.477       .  S
C195       C3172   1.462       .  S
C196       C3181   1.471       .  S
O197        V205   1.918       .  S
O197        C207   1.271   1_556  A
O198        V205   1.914       .  S
O198        C208   1.268       .  A
O199        V205   1.884   1_554  S
O199        C209   1.261       .  A
O200        V205   1.879       .  S
O200        C210   1.259       .  A
O201        V206   1.913       .  S
O201        C210   1.269       .  A
O202        V206   1.916   1_554  S
O202        C209   1.268       .  A
O203        V206   1.882       .  S
O203        C208   1.259       .  A
O204        V206   1.885   1_554  S
O204        C207   1.260       .  A
V205        V206   2.086       .  T
C207       C3145   1.494       .  S
C208       C3184   1.476       .  S
C209       C3157   1.481       .  S
C210       C3133   1.479       .  S
O211        V219   1.916       .  S
O211        C221   1.270       .  A
O212        V219   1.912       .  S
O212        C222   1.269       .  A
O213        V219   1.878       .  S
O213        C223   1.258       .  A
O214        V219   1.879       .  S
O214        C224   1.260       .  A
O215        V220   1.917       .  S
O215        C224   1.269       .  A
O216        V220   1.909       .  S
O216        C223   1.269       .  A
O217        V220   1.890       .  S
O217        C222   1.261       .  A
O218        V220   1.897       .  S
O218        C221   1.263       .  A
V219        V220   2.083       .  T
C221       C3109   1.500       .  S
C222       C3160   1.486       .  S
C223       C3100   1.485       .  S
C224       C3121   1.484       .  S
O225        V233   1.913       .  S
O225        C235   1.269       .  A
O226        V233   1.910       .  S
O226        C236   1.268       .  A
O227        V233   1.877       .  S
O227        C237   1.258       .  A
O228        V233   1.879       .  S
O228        C238   1.259   1_554  A
O229        V234   1.917   1_556  S
O229        C238   1.269       .  A
O230        V234   1.913       .  S
O230        C237   1.270       .  A
O231        V234   1.879       .  S
O231        C236   1.258       .  A
O232        V234   1.886       .  S
O232        C235   1.261       .  A
V233        V234   2.086       .  T
C235       C3073   1.486       .  S
C236       C3085   1.472       .  S
C237       C3064   1.480       .  S
C238       C3232   1.474       .  S
O239        V247   1.908       .  S
O239        C249   1.267       .  A
O240        V247   1.906       .  S
O240        C250   1.268       .  A
O241        V247   1.889       .  S
O241        C251   1.261       .  A
O242        V247   1.890       .  S
O242        C252   1.262       .  A
O243        V248   1.898       .  S
O243        C252   1.266       .  A
O244        V248   1.903       .  S
O244        C251   1.265       .  A
O245        V248   1.891       .  S
O245        C250   1.261       .  A
O246        V248   1.893       .  S
O246        C249   1.264       .  A
V247        V248   2.083       .  T
C249       C3544   1.489       .  S
C250       C3124   1.477       .  S
C251       C3088   1.467       .  S
C252       C3049   1.475       .  S
O253        V261   1.919       .  S
O253        C263   1.271       .  A
O254        V261   1.915       .  S
O254        C264   1.270       .  A
O255        V261   1.876       .  S
O255        C265   1.258       .  A
O256        V261   1.871       .  S
O256        C266   1.257       .  A
O257        V262   1.911       .  S
O257        C266   1.268       .  A
O258        V262   1.917       .  S
O258        C265   1.269       .  A
O259        V262   1.890       .  S
O259        C264   1.262       .  A
O260        V262   1.894       .  S
O260        C263   1.262       .  A
V261        V262   2.085       .  T
C263       C3013   1.501       .  S
C264       C3037   1.494       .  S
C265       C3025   1.475       .  S
C266       C3001   1.471       .  S
O267        V275   1.915       .  S
O267        C277   1.270       .  A
O268        V275   1.911       .  S
O268        C278   1.270       .  A
O269        V275   1.883       .  S
O269        C279   1.259       .  A
O270        V275   1.889       .  S
O270        C280   1.260       .  A
O271        V276   1.917       .  S
O271        C280   1.268       .  A
O272        V276   1.910       .  S
O272        C279   1.269       .  A
O273        V276   1.887       .  S
O273        C278   1.260       .  A
O274        V276   1.896       .  S
O274        C277   1.263       .  A
V275        V276   2.085       .  T
C277       C3112   1.497       .  S
C278       C3028   1.485       .  S
C279       C2977   1.482       .  S
C280       C2989   1.476       .  S
O281        V289   1.916       .  S
O281        C291   1.271       .  A
O282        V289   1.916       .  S
O282        C292   1.270       .  A
O283        V289   1.880       .  S
O283        C293   1.259       .  A
O284        V289   1.879       .  S
O284        C294   1.258       .  A
O285        V290   1.912       .  S
O285        C294   1.270       .  A
O286        V290   1.916       .  S
O286        C293   1.268       .  A
O287        V290   1.894       .  S
O287        C292   1.263       .  A
O288        V290   1.898       .  S
O288        C291   1.263       .  A
V289        V290   2.084       .  T
C291       C3400   1.499       .  S
C292       C2992   1.494       .  S
C293       C2968   1.477       .  S
C294       C2953   1.484       .  S
O295        V303   1.904       .  S
O295        C305   1.267       .  A
O296        V303   1.905       .  S
O296        C306   1.268       .  A
O297        V303   1.868       .  S
O297        C307   1.257       .  A
O298        V303   1.872       .  S
O298        C308   1.258       .  A
O299        V304   1.923       .  S
O299        C308   1.271       .  A
O300        V304   1.916       .  S
O300        C307   1.270       .  A
O301        V304   1.893       .  S
O301        C306   1.261       .  A
O302        V304   1.900       .  S
O302        C305   1.264       .  A
V303        V304   2.084       .  T
C305       C2929   1.492       .  S
C306       C2965   1.484       .  S
C307       C2917   1.484       .  S
C308       C2944   1.482       .  S
O309        V317   1.911       .  S
O309        C319   1.269       .  A
O310        V317   1.908       .  S
O310        C320   1.269       .  A
O311        V317   1.881       .  S
O311        C321   1.259       .  A
O312        V317   1.879       .  S
O312        C322   1.258       .  A
O313        V318   1.907       .  S
O313        C322   1.268       .  A
O314        V318   1.914       .  S
O314        C321   1.268       .  A
O315        V318   1.890       .  S
O315        C320   1.260       .  A
O316        V318   1.893       .  S
O316        C319   1.262       .  A
V317        V318   2.084       .  T
C319       C3208   1.490       .  S
C320       C2941   1.481       .  S
C321       C2905   1.471       .  S
C322       C2893   1.469       .  S
O323        V331   1.911       .  S
O323        C333   1.269       .  A
O324        V331   1.909       .  S
O324        C334   1.267       .  A
O325        V331   1.876       .  S
O325        C335   1.259       .  A
O326        V331   1.883       .  S
O326        C336   1.259       .  A
O327        V332   1.916       .  S
O327        C336   1.268       .  A
O328        V332   1.911       .  S
O328        C335   1.268       .  A
O329        V332   1.892       .  S
O329        C334   1.262       .  A
O330        V332   1.898       .  S
O330        C333   1.263       .  A
V331        V332   2.085       .  T
C333       C3304   1.495       .  S
C334       C2908   1.478       .  S
C335       C2881   1.485       .  S
C336       C3040   1.471       .  S
O337        V345   1.918       .  S
O337        C347   1.271       .  A
O338        V345   1.916       .  S
O338        C348   1.270       .  A
O339        V345   1.878       .  S
O339        C349   1.258       .  A
O340        V345   1.876       .  S
O340        C350   1.258       .  A
O341        V346   1.910       .  S
O341        C350   1.269       .  A
O342        V346   1.915       .  S
O342        C349   1.269       .  A
O343        V346   1.892       .  S
O343        C348   1.261       .  A
O344        V346   1.894       .  S
O344        C347   1.262       .  A
V345        V346   2.085       .  T
C347       C3016   1.497       .  S
C348       C2872   1.488       .  S
C349       C2857   1.478       .  S
C350       C2845   1.479       .  S
O351        V359   1.904   1_545  S
O351        C361   1.267   1_545  A
O352        V359   1.903       .  S
O352        C362   1.267       .  A
O353        V359   1.883       .  S
O353        C363   1.260       .  A
O354        V359   1.886       .  S
O354        C364   1.261       .  A
O355        V360   1.911       .  S
O355        C364   1.268       .  A
O356        V360   1.907       .  S
O356        C363   1.267       .  A
O357        V360   1.891       .  S
O357        C362   1.261       .  A
O358        V360   1.898       .  S
O358        C361   1.264       .  A
V359        V360   2.084       .  T
C361       C2821   1.490   1_565  S
C362       C2860   1.481       .  S
C363       C2809   1.471       .  S
C364       C2833   1.478       .  S
O365        V373   1.917       .  S
O365        C375   1.269       .  A
O366        V373   1.913       .  S
O366        C376   1.270       .  A
O367        V373   1.876       .  S
O367        C377   1.258       .  A
O368        V373   1.877       .  S
O368        C378   1.259       .  A
O369        V374   1.915       .  S
O369        C378   1.269       .  A
O370        V374   1.907       .  S
O370        C377   1.268       .  A
O371        V374   1.885       .  S
O371        C376   1.259       .  A
O372        V374   1.887       .  S
O372        C375   1.262       .  A
V373        V374   2.084       .  T
C375       C2932   1.493       .  S
C376       C2797   1.482       .  S
C377       C2773   1.483       .  S
C378       C2785   1.481       .  S
O379        V387   1.912   1_545  S
O379        C389   1.269       .  A
O380        V387   1.911       .  S
O380        C390   1.267       .  A
O381        V387   1.879   1_545  S
O381        C391   1.259       .  A
O382        V387   1.873       .  S
O382        C392   1.257       .  A
O383        V388   1.918   1_565  S
O383        C392   1.271       .  A
O384        V388   1.918       .  S
O384        C391   1.269       .  A
O385        V388   1.888   1_565  S
O385        C390   1.260       .  A
O386        V388   1.893       .  S
O386        C389   1.262       .  A
V387        V388   2.085   1_565  T
C389       C2761   1.492       .  S
C390       C2836   1.472       .  S
C391       C2800   1.480       .  S
C392       C2749   1.487       .  S
O393        V401   1.909       .  S
O393        C403   1.268       .  A
O394        V401   1.905       .  S
O394        C404   1.268       .  A
O395        V401   1.886       .  S
O395        C405   1.261       .  A
O396        V401   1.885       .  S
O396        C406   1.261       .  A
O397        V402   1.897       .  S
O397        C406   1.266       .  A
O398        V402   1.908       .  S
O398        C405   1.266       .  A
O399        V402   1.892       .  S
O399        C404   1.261       .  A
O400        V402   1.899       .  S
O400        C403   1.264       .  A
V401        V402   2.084       .  T
C403       C2725   1.495       .  S
C404       C2788   1.477       .  S
C405       C2740   1.474       .  S
C406       C2713   1.478       .  S
O407        V415   1.918       .  S
O407        C417   1.270       .  A
O408        V415   1.915       .  S
O408        C418   1.268       .  A
O409        V415   1.885       .  S
O409        C419   1.259       .  A
O410        V415   1.889       .  S
O410        C420   1.262   1_545  A
O411        V416   1.913       .  S
O411        C420   1.268   1_545  A
O412        V416   1.909       .  S
O412        C419   1.269       .  A
O413        V416   1.884       .  S
O413        C418   1.260       .  A
O414        V416   1.891       .  S
O414        C417   1.262       .  A
V415        V416   2.085       .  T
C417       C2701   1.498       .  S
C418       C2737   1.476       .  S
C419       C2692   1.489       .  S
C420       C2869   1.482       .  S
O421        V429   1.908       .  S
O421        C431   1.268       .  A
O422        V429   1.906       .  S
O422        C432   1.267       .  A
O423        V429   1.874       .  S
O423        C433   1.258       .  A
O424        V429   1.882       .  S
O424        C434   1.261   1_554  A
O425        V430   1.919   1_556  S
O425        C434   1.270       .  A
O426        V430   1.914       .  S
O426        C433   1.270       .  A
O427        V430   1.885       .  S
O427        C432   1.259       .  A
O428        V430   1.887       .  S
O428        C431   1.262       .  A
V429        V430   2.085       .  T
C431       C3076   1.491       .  S
C432       C2680   1.471       .  S
C433       C2653   1.483       .  S
C434       C2665   1.490       .  S
O435        V443   1.915       .  S
O435        C445   1.270       .  A
O436        V443   1.916       .  S
O436        C446   1.271       .  A
O437        V443   1.878       .  S
O437        C447   1.259   1_545  A
O438        V443   1.878       .  S
O438        C448   1.258       .  A
O439        V444   1.907       .  S
O439        C448   1.268       .  A
O440        V444   1.910       .  S
O440        C447   1.266   1_545  A
O441        V444   1.882       .  S
O441        C446   1.259       .  A
O442        V444   1.884       .  S
O442        C445   1.260       .  A
V443        V444   2.083       .  T
C445       C2629   1.491       .  S
C446       C2641   1.491       .  S
C447       C2677   1.467       .  S
C448       C2617   1.474       .  S
O449        V457   1.908   1_545  S
O449        C459   1.268   1_545  A
O450        V457   1.907       .  S
O450        C460   1.268       .  A
O451        V457   1.880       .  S
O451        C461   1.260       .  A
O452        V457   1.883       .  S
O452        C462   1.260       .  A
O453        V458   1.899       .  S
O453        C462   1.266       .  A
O454        V458   1.908       .  S
O454        C461   1.266       .  A
O455        V458   1.895       .  S
O455        C460   1.262       .  A
O456        V458   1.901       .  S
O456        C459   1.265       .  A
V457        V458   2.083       .  T
C459       C2728   1.496   1_565  S
C460       C2668   1.480       .  S
C461       C2608   1.468       .  S
C462       C2593   1.477       .  S
O463        V471   1.914       .  S
O463        C473   1.269       .  A
O464        V471   1.908       .  S
O464        C474   1.267       .  A
O465        V471   1.883       .  S
O465        C475   1.260       .  A
O466        V471   1.886       .  S
O466        C476   1.260       .  A
O467        V472   1.912       .  S
O467        C476   1.267       .  A
O468        V472   1.911       .  S
O468        C475   1.269       .  A
O469        V472   1.885       .  S
O469        C474   1.260       .  A
O470        V472   1.887       .  S
O470        C473   1.262       .  A
V471        V472   2.085       .  T
C473       C2824   1.492       .  S
C474       C2584   1.474       .  S
C475       C2569   1.480       .  S
C476       C2644   1.474       .  S
O477        V485   1.909       .  S
O477        C487   1.269   1_556  A
O478        V485   1.913       .  S
O478        C488   1.269       .  A
O479        V485   1.885   1_554  S
O479        C489   1.260       .  A
O480        V485   1.886       .  S
O480        C490   1.261       .  A
O481        V486   1.899       .  S
O481        C490   1.266       .  A
O482        V486   1.905   1_554  S
O482        C489   1.266       .  A
O483        V486   1.889       .  S
O483        C488   1.262       .  A
O484        V486   1.896   1_554  S
O484        C487   1.262       .  A
V485        V486   2.084       .  T
C487       C3148   1.494       .  S
C488       C2557   1.488       .  S
C489       C2581   1.469       .  S
C490       C2545   1.479       .  S
O491        V499   1.919   1_545  S
O491        C501   1.270       .  A
O492        V499   1.913       .  S
O492        C502   1.269       .  A
O493        V499   1.876       .  S
O493        C503   1.258       .  A
O494        V499   1.885   1_545  S
O494        C504   1.260       .  A
O495        V500   1.917       .  S
O495        C504   1.270       .  A
O496        V500   1.917   1_565  S
O496        C503   1.270       .  A
O497        V500   1.878   1_565  S
O497        C502   1.258       .  A
O498        V500   1.883       .  S
O498        C501   1.261       .  A
V499        V500   2.085   1_565  T
C501       C2533   1.492   1_556  S
C502       C2605   1.473       .  S
C503       C2521   1.483       .  S
C504       C2560   1.484       .  S
O505        V513   1.910       .  S
O505        C515   1.269       .  A
O506        V513   1.906       .  S
O506        C516   1.267       .  A
O507        V513   1.877       .  S
O507        C517   1.259   1_554  A
O508        V513   1.881       .  S
O508        C518   1.259       .  A
O509        V514   1.901       .  S
O509        C518   1.267       .  A
O510        V514   1.913       .  S
O510        C517   1.267   1_554  A
O511        V514   1.886       .  S
O511        C516   1.259       .  A
O512        V514   1.892       .  S
O512        C515   1.262       .  A
V513        V514   2.081       .  T
C515       C3577   1.489       .  S
C516       C2509   1.466       .  S
C517       C2497   1.468       .  S
C518       C2485   1.465       .  S
O519        V527   1.904   1_545  S
O519        C529   1.267       .  A
O520        V527   1.905       .  S
O520        C530   1.267       .  A
O521        V527   1.878       .  S
O521        C531   1.258       .  A
O522        V527   1.876   1_545  S
O522        C532   1.258       .  A
O523        V528   1.917       .  S
O523        C532   1.270       .  A
O524        V528   1.908   1_565  S
O524        C531   1.269       .  A
O525        V528   1.891   1_565  S
O525        C530   1.261       .  A
O526        V528   1.899       .  S
O526        C529   1.264       .  A
V527        V528   2.082   1_565  T
C529       C2536   1.491       .  S
C530       C2473   1.479       .  S
C531       C2461   1.482       .  S
C532       C2512   1.490       .  S
O533        V541   1.920   1_545  S
O533        C543   1.271   1_545  A
O534        V541   1.918       .  S
O534        C544   1.269       .  A
O535        V541   1.877       .  S
O535        C545   1.259   1_455  A
O536        V541   1.867       .  S
O536        C546   1.255       .  A
O537        V542   1.917       .  S
O537        C546   1.271       .  A
O538        V542   1.917   1_655  S
O538        C545   1.269       .  A
O539        V542   1.886       .  S
O539        C544   1.259       .  A
O540        V542   1.887       .  S
O540        C543   1.260       .  A
V541        V542   2.085       .  T
C543       C2440   1.496   1_565  S
C544       C2449   1.478       .  S
C545       C2476   1.480       .  S
C546       C2428   1.481       .  S
O547        V555   1.905       .  S
O547        C557   1.268   1_556  A
O548        V555   1.905       .  S
O548        C558   1.267       .  A
O549        V555   1.879       .  S
O549        C559   1.260       .  A
O550        V555   1.879   1_554  S
O550        C560   1.259       .  A
O551        V556   1.920   1_554  S
O551        C560   1.270       .  A
O552        V556   1.910       .  S
O552        C559   1.269       .  A
O553        V556   1.891       .  S
O553        C558   1.260       .  A
O554        V556   1.901   1_554  S
O554        C557   1.264       .  A
V555        V556   2.083       .  T
C557       C3448   1.491       .  S
C558       C2413   1.472       .  S
C559       C2401   1.483       .  S
C560       C2452   1.480       .  S
O561        V569   1.906   1_554  S
O561        C571   1.268   1_554  A
O562        V569   1.907       .  S
O562        C572   1.267       .  A
O563        V569   1.882       .  S
O563        C573   1.260   1_545  A
O564        V569   1.883       .  S
O564        C574   1.261       .  A
O565        V570   1.905       .  S
O565        C574   1.267       .  A
O566        V570   1.913       .  S
O566        C573   1.269   1_545  A
O567        V570   1.884       .  S
O567        C572   1.260       .  A
O568        V570   1.893       .  S
O568        C571   1.261       .  A
V569        V570   2.084       .  T
C571       C2632   1.488   1_556  S
C572       C2389   1.473       .  S
C573       C2416   1.486       .  S
C574       C2380   1.486       .  S
O575        V583   1.919       .  S
O575        C585   1.272       .  A
O576        V583   1.921       .  S
O576        C586   1.270       .  A
O577        V583   1.864       .  S
O577        C587   1.256       .  A
O578        V583   1.873   1_455  S
O578        C588   1.257       .  A
O579        V584   1.917   1_455  S
O579        C588   1.270       .  A
O580        V584   1.915       .  S
O580        C587   1.270       .  A
O581        V584   1.875       .  S
O581        C586   1.258       .  A
O582        V584   1.886       .  S
O582        C585   1.259       .  A
V583        V584   2.085       .  T
C585       C2365   1.495       .  S
C586       C2500   1.479       .  S
C587       C2353   1.478       .  S
C588       C2392   1.478       .  S
O589        V597   1.908       .  S
O589        C599   1.269       .  A
O590        V597   1.904       .  S
O590        C600   1.268       .  A
O591        V597   1.888       .  S
O591        C601   1.260   1_455  A
O592        V597   1.886       .  S
O592        C602   1.260       .  A
O593        V598   1.910       .  S
O593        C602   1.269       .  A
O594        V598   1.916   1_655  S
O594        C601   1.268       .  A
O595        V598   1.888       .  S
O595        C600   1.260       .  A
O596        V598   1.899       .  S
O596        C599   1.263       .  A
V597        V598   2.085       .  T
C599       C2437   1.495       .  S
C600       C2341   1.479       .  S
C601       C2332   1.475       .  S
C602       C2320   1.487       .  S
O603        V611   1.916       .  S
O603        C613   1.270       .  A
O604        V611   1.920       .  S
O604        C614   1.270       .  A
O605        V611   1.870       .  S
O605        C615   1.258       .  A
O606        V611   1.871       .  S
O606        C616   1.257       .  A
O607        V612   1.919       .  S
O607        C616   1.269       .  A
O608        V612   1.916       .  S
O608        C615   1.270       .  A
O609        V612   1.886       .  S
O609        C614   1.261       .  A
O610        V612   1.896       .  S
O610        C613   1.263       .  A
V611        V612   2.084       .  T
C613       C2704   1.495       .  S
C614       C2329   1.490       .  S
C615       C2293   1.485       .  S
C616       C2308   1.477   1_545  S
O617        V625   1.908       .  S
O617        C627   1.268       .  A
O618        V625   1.902       .  S
O618        C628   1.266       .  A
O619        V625   1.888       .  S
O619        C629   1.261       .  A
O620        V625   1.883       .  S
O620        C630   1.261       .  A
O621        V626   1.905       .  S
O621        C630   1.267       .  A
O622        V626   1.914       .  S
O622        C629   1.268       .  A
O623        V626   1.889       .  S
O623        C628   1.261       .  A
O624        V626   1.895       .  S
O624        C627   1.263       .  A
V625        V626   2.086       .  T
C627       C3253   1.493       .  S
C628       C2305   1.473       .  S
C629       C2281   1.481       .  S
C630       C2269   1.485       .  S
O631        V639   1.910       .  S
O631        C641   1.268       .  A
O632        V639   1.906       .  S
O632        C642   1.267       .  A
O633        V639   1.875       .  S
O633        C643   1.257       .  A
O634        V639   1.878       .  S
O634        C644   1.259       .  A
O635        V640   1.912       .  S
O635        C644   1.267       .  A
O636        V640   1.906       .  S
O636        C643   1.268       .  A
O637        V640   1.895       .  S
O637        C642   1.263       .  A
O638        V640   1.897       .  S
O638        C641   1.264       .  A
V639        V640   2.084       .  T
C641       C3361   1.493       .  S
C642       C2260   1.492       .  S
C643       C2245   1.481       .  S
C644       C2344   1.474       .  S
O645        V653   1.917   1_545  S
O645        C655   1.271       .  A
O646        V653   1.913       .  S
O646        C656   1.268       .  A
O647        V653   1.882   1_545  S
O647        C657   1.259       .  A
O648        V653   1.879       .  S
O648        C658   1.258       .  A
O649        V654   1.910   1_565  S
O649        C658   1.269       .  A
O650        V654   1.914       .  S
O650        C657   1.267       .  A
O651        V654   1.885   1_565  S
O651        C656   1.260       .  A
O652        V654   1.887       .  S
O652        C655   1.260       .  A
V653        V654   2.086   1_565  T
C655       C2764   1.496       .  S
C656       C2236   1.477       .  S
C657       C2257   1.470       .  S
C658       C2221   1.479       .  S
O659        V667   1.919   1_545  S
O659        C669   1.270   1_545  A
O660        V667   1.917       .  S
O660        C670   1.271       .  A
O661        V667   1.883       .  S
O661        C671   1.259       .  A
O662        V667   1.880   1_455  S
O662        C672   1.259       .  A
O663        V668   1.913   1_455  S
O663        C672   1.267       .  A
O664        V668   1.908       .  S
O664        C671   1.268       .  A
O665        V668   1.884       .  S
O665        C670   1.260       .  A
O666        V668   1.890       .  S
O666        C669   1.261       .  A
V667        V668   2.083       .  T
C669       C2368   1.486   1_565  S
C670       C2284   1.489       .  S
C671       C2209   1.470       .  S
C672       C2233   1.471       .  S
O673        V681   1.916       .  S
O673        C683   1.269       .  A
O674        V681   1.913       .  S
O674        C684   1.268       .  A
O675        V681   1.880       .  S
O675        C685   1.260       .  A
O676        V681   1.878       .  S
O676        C686   1.259       .  A
O677        V682   1.907       .  S
O677        C686   1.268       .  A
O678        V682   1.910       .  S
O678        C685   1.266       .  A
O679        V682   1.892       .  S
O679        C684   1.261       .  A
O680        V682   1.897       .  S
O680        C683   1.264       .  A
V681        V682   2.085       .  T
C683       C2173   1.501       .  S
C684       C2197   1.477       .  S
C685       C2185   1.473       .  S
C686       C3196   1.482       .  S
O687        V695   1.906       .  S
O687        C697   1.267       .  A
O688        V695   1.903       .  S
O688        C698   1.267       .  A
O689        V695   1.884       .  S
O689        C699   1.261       .  A
O690        V695   1.886       .  S
O690        C700   1.262       .  A
O691        V696   1.907       .  S
O691        C700   1.267       .  A
O692        V696   1.902       .  S
O692        C699   1.266       .  A
O693        V696   1.886       .  S
O693        C698   1.260       .  A
O694        V696   1.890       .  S
O694        C697   1.262       .  A
V695        V696   2.084       .  T
C697       C2149   1.488       .  S
C698       C2188   1.478       .  S
C699       C3436   1.484       .  S
C700       C2164   1.485       .  S
O701        V709   1.914       .  S
O701        C711   1.269       .  A
O702        V709   1.908       .  S
O702        C712   1.268       .  A
O703        V709   1.881       .  S
O703        C713   1.260       .  A
O704        V709   1.878       .  S
O704        C714   1.258       .  A
O705        V710   1.908       .  S
O705        C714   1.267       .  A
O706        V710   1.915       .  S
O706        C713   1.269       .  A
O707        V710   1.885       .  S
O707        C712   1.260       .  A
O708        V710   1.887       .  S
O708        C711   1.261       .  A
V709        V710   2.086       .  T
C711       C2113   1.488       .  S
C712       C2137   1.480       .  S
C713       C2128   1.481       .  S
C714       C2848   1.467       .  S
O715        V723   1.915       .  S
O715        C725   1.270       .  A
O716        V723   1.910       .  S
O716        C726   1.269       .  A
O717        V723   1.886       .  S
O717        C727   1.259       .  A
O718        V723   1.887       .  S
O718        C728   1.261       .  A
O719        V724   1.915       .  S
O719        C728   1.268       .  A
O720        V724   1.909       .  S
O720        C727   1.268       .  A
O721        V724   1.890       .  S
O721        C726   1.261       .  A
O722        V724   1.898       .  S
O722        C725   1.263       .  A
V723        V724   2.082       .  T
C725       C2101   1.499       .  S
C726       C2125   1.482       .  S
C727       C2524   1.472       .  S
C728       C2200   1.480       .  S
O729        V737   1.907       .  S
O729        C739   1.268       .  A
O730        V737   1.907       .  S
O730        C740   1.267       .  A
O731        V737   1.888       .  S
O731        C741   1.261       .  A
O732        V737   1.892       .  S
O732        C742   1.262       .  A
O733        V738   1.901       .  S
O733        C742   1.267       .  A
O734        V738   1.908       .  S
O734        C741   1.266       .  A
O735        V738   1.889       .  S
O735        C740   1.261       .  A
O736        V738   1.899       .  S
O736        C739   1.264       .  A
V737        V738   2.085       .  T
C739       C2077   1.488       .  S
C740       C2161   1.474       .  S
C741       C2089   1.474       .  S
C742       C3385   1.481       .  S
O743        V751   1.912       .  S
O743        C753   1.269       .  A
O744        V751   1.910       .  S
O744        C754   1.267       .  A
O745        V751   1.874       .  S
O745        C755   1.257       .  A
O746        V751   1.876       .  S
O746        C756   1.259       .  A
O747        V752   1.915       .  S
O747        C756   1.268       .  A
O748        V752   1.914       .  S
O748        C755   1.270       .  A
O749        V752   1.887       .  S
O749        C754   1.260       .  A
O750        V752   1.889       .  S
O750        C753   1.261       .  A
V751        V752   2.086       .  T
C753       C2065   1.494       .  S
C754       C2092   1.475       .  S
C755       C2212   1.480       .  S
C756       C2140   1.476       .  S
O757        V765   1.912       .  S
O757        C767   1.269       .  A
O758        V765   1.913       .  S
O758        C768   1.267       .  A
O759        V765   1.879       .  S
O759        C769   1.261       .  A
O760        V765   1.874       .  S
O760        C770   1.258       .  A
O761        V766   1.915       .  S
O761        C770   1.270       .  A
O762        V766   1.920       .  S
O762        C769   1.270       .  A
O763        V766   1.886       .  S
O763        C768   1.260       .  A
O764        V766   1.897       .  S
O764        C767   1.264       .  A
V765        V766   2.084       .  T
C767       C2032   1.499       .  S
C768       C2053   1.473       .  S
C769       C2041   1.490       .  S
C770       C2224   1.486       .  S
O771        V779   1.909       .  S
O771        C781   1.268       .  A
O772        V779   1.911       .  S
O772        C782   1.268       .  A
O773        V779   1.878       .  S
O773        C783   1.260       .  A
O774        V779   1.876       .  S
O774        C784   1.260       .  A
O775        V780   1.912       .  S
O775        C784   1.268       .  A
O776        V780   1.902       .  S
O776        C783   1.267       .  A
O777        V780   1.893       .  S
O777        C782   1.261       .  A
O778        V780   1.894       .  S
O778        C781   1.262       .  A
V779        V780   2.085       .  T
C781       C2005   1.488       .  S
C782       C2044   1.478       .  S
C783       C3265   1.481       .  S
C784       C2017   1.482       .  S
O785        V793   1.916       .  S
O785        C795   1.270       .  A
O786        V793   1.910       .  S
O786        C796   1.268       .  A
O787        V793   1.878       .  S
O787        C797   1.258       .  A
O788        V793   1.883       .  S
O788        C798   1.260       .  A
O789        V794   1.905       .  S
O789        C798   1.266       .  A
O790        V794   1.903       .  S
O790        C797   1.267       .  A
O791        V794   1.884       .  S
O791        C796   1.260       .  A
O792        V794   1.887       .  S
O792        C795   1.262       .  A
V793        V794   2.086       .  T
C795       C1969   1.491       .  S
C796       C1993   1.475       .  S
C797       C3169   1.473       .  S
C798       C1981   1.468       .  S
O799        V807   1.902       .  S
O799        C809   1.268       .  A
O800        V807   1.902       .  S
O800        C810   1.266       .  A
O801        V807   1.882       .  S
O801        C811   1.259       .  A
O802        V807   1.882       .  S
O802        C812   1.260       .  A
O803        V808   1.901       .  S
O803        C812   1.267       .  A
O804        V808   1.909       .  S
O804        C811   1.266       .  A
O805        V808   1.889       .  S
O805        C810   1.260       .  A
O806        V808   1.898       .  S
O806        C809   1.263       .  A
V807        V808   2.083       .  T
C809       C2116   1.492       .  S
C810       C2020   1.469       .  S
C811       C1996   1.468       .  S
C812       C3004   1.481       .  S
O813        V821   1.906       .  S
O813        C823   1.267       .  A
O814        V821   1.906       .  S
O814        C824   1.268       .  A
O815        V821   1.880       .  S
O815        C825   1.260       .  A
O816        V821   1.879       .  S
O816        C826   1.259       .  A
O817        V822   1.916       .  S
O817        C826   1.269       .  A
O818        V822   1.910       .  S
O818        C825   1.269       .  A
O819        V822   1.882       .  S
O819        C824   1.259       .  A
O820        V822   1.891       .  S
O820        C823   1.262       .  A
V821        V822   2.085       .  T
C823       C2152   1.484       .  S
C824       C1957   1.476       .  S
C825       C2404   1.485       .  S
C826       C2056   1.476       .  S
O827        V835   1.906       .  S
O827        C837   1.268       .  A
O828        V835   1.906       .  S
O828        C838   1.268       .  A
O829        V835   1.876       .  S
O829        C839   1.258       .  A
O830        V835   1.873       .  S
O830        C840   1.259       .  A
O831        V836   1.908       .  S
O831        C840   1.268       .  A
O832        V836   1.911       .  S
O832        C839   1.268       .  A
O833        V836   1.883       .  S
O833        C838   1.259       .  A
O834        V836   1.889       .  S
O834        C837   1.261       .  A
V835        V836   2.085       .  T
C837       C1945   1.489       .  S
C838       C1984   1.483       .  S
C839       C1960   1.473       .  S
C840       C2596   1.482       .  S
O841        V849   1.910       .  S
O841        C851   1.267       .  A
O842        V849   1.908       .  S
O842        C852   1.267       .  A
O843        V849   1.886       .  S
O843        C853   1.261       .  A
O844        V849   1.887       .  S
O844        C854   1.261       .  A
O845        V850   1.903       .  S
O845        C854   1.267       .  A
O846        V850   1.914       .  S
O846        C853   1.268       .  A
O847        V850   1.896       .  S
O847        C852   1.262       .  A
O848        V850   1.900       .  S
O848        C851   1.265       .  A
V849        V850   2.084       .  T
C851       C1912   1.487       .  S
C852       C1936   1.477       .  S
C853       C1921   1.476       .  S
C854       C3241   1.476       .  S
O855        V863   1.920       .  S
O855        C865   1.271       .  A
O856        V863   1.919       .  S
O856        C866   1.269       .  A
O857        V863   1.874       .  S
O857        C867   1.256       .  A
O858        V863   1.878       .  S
O858        C868   1.260       .  A
O859        V864   1.922       .  S
O859        C868   1.271       .  A
O860        V864   1.919       .  S
O860        C867   1.272       .  A
O861        V864   1.882       .  S
O861        C866   1.258       .  A
O862        V864   1.887       .  S
O862        C865   1.260       .  A
V863        V864   2.083       .  T
C865       C1885   1.496       .  S
C866       C1897   1.477       .  S
C867       C2980   1.489       .  S
C868       C1933   1.494       .  S
O869        V877   1.911       .  S
O869        C879   1.269       .  A
O870        V877   1.915       .  S
O870        C880   1.269       .  A
O871        V877   1.861       .  S
O871        C881   1.255       .  A
O872        V877   1.868       .  S
O872        C882   1.256       .  A
O873        V878   1.919       .  S
O873        C882   1.269       .  A
O874        V878   1.916       .  S
O874        C881   1.270       .  A
O875        V878   1.885       .  S
O875        C880   1.259       .  A
O876        V878   1.892       .  S
O876        C879   1.262       .  A
V877        V878   2.086       .  T
C879       C1972   1.494       .  S
C880       C1924   1.478       .  S
C881       C3496   1.476       .  S
C882       C1873   1.474       .  S
O883        V891   1.915       .  S
O883        C893   1.270       .  A
O884        V891   1.912       .  S
O884        C894   1.269       .  A
O885        V891   1.883       .  S
O885        C895   1.260       .  A
O886        V891   1.888       .  S
O886        C896   1.260       .  A
O887        V892   1.906       .  S
O887        C896   1.268       .  A
O888        V892   1.914       .  S
O888        C895   1.268       .  A
O889        V892   1.889       .  S
O889        C894   1.260       .  A
O890        V892   1.897       .  S
O890        C893   1.264       .  A
V891        V892   2.082       .  T
C893       C2029   1.494       .  S
C894       C1861   1.477       .  S
C895       C1900   1.477       .  S
C896       C2752   1.477       .  S
O897        V905   1.922       .  S
O897        C907   1.271       .  A
O898        V905   1.920       .  S
O898        C908   1.270       .  A
O899        V905   1.878       .  S
O899        C909   1.259       .  A
O900        V905   1.883       .  S
O900        C910   1.260       .  A
O901        V906   1.914       .  S
O901        C910   1.270       .  A
O902        V906   1.911       .  S
O902        C909   1.269       .  A
O903        V906   1.876       .  S
O903        C908   1.258       .  A
O904        V906   1.882       .  S
O904        C907   1.259       .  A
V905        V906   2.083       .  T
C907       C1837   1.497       .  S
C908       C1849   1.480       .  S
C909       C2656   1.484       .  S
C910       C1864   1.491       .  S
O911        V919   1.911       .  S
O911        C921   1.269       .  A
O912        V919   1.905       .  S
O912        C922   1.269       .  A
O913        V919   1.880       .  S
O913        C923   1.259       .  A
O914        V919   1.879       .  S
O914        C924   1.258       .  A
O915        V920   1.906       .  S
O915        C924   1.268       .  A
O916        V920   1.912       .  S
O916        C923   1.267       .  A
O917        V920   1.886       .  S
O917        C922   1.260       .  A
O918        V920   1.895       .  S
O918        C921   1.263       .  A
V919        V920   2.085       .  T
C921       C1825   1.495       .  S
C922       C1876   1.481       .  S
C923       C1852   1.468       .  S
C924       C2425   1.470       .  S
O925        V933   1.906       .  S
O925        C935   1.268       .  A
O926        V933   1.904       .  S
O926        C936   1.267       .  A
O927        V933   1.878       .  S
O927        C937   1.259       .  A
O928        V933   1.874       .  S
O928        C938   1.259       .  A
O929        V934   1.911       .  S
O929        C938   1.268       .  A
O930        V934   1.919       .  S
O930        C937   1.269       .  A
O931        V934   1.885       .  S
O931        C936   1.260       .  A
O932        V934   1.890       .  S
O932        C935   1.261       .  A
V933        V934   2.086       .  T
C935       C1789   1.486       .  S
C936       C1813   1.477       .  S
C937       C1801   1.478       .  S
C938       C2548   1.481       .  S
O939        V947   1.908       .  S
O939        C949   1.268       .  A
O940        V947   1.909       .  S
O940        C950   1.268       .  A
O941        V947   1.874       .  S
O941        C951   1.258       .  A
O942        V947   1.877       .  S
O942        C952   1.258       .  A
O943        V948   1.907       .  S
O943        C952   1.269       .  A
O944        V948   1.914       .  S
O944        C951   1.268       .  A
O945        V948   1.898       .  S
O945        C950   1.263       .  A
O946        V948   1.906       .  S
O946        C949   1.265       .  A
V947        V948   2.085       .  T
C949       C2176   1.492       .  S
C950       C1777   1.487       .  S
C951       C1768   1.470       .  S
C952       C2896   1.480       .  S
O953        V961   1.910       .  S
O953        C963   1.269       .  A
O954        V961   1.906       .  S
O954        C964   1.267       .  A
O955        V961   1.883       .  S
O955        C965   1.259       .  A
O956        V961   1.886       .  S
O956        C966   1.261       .  A
O957        V962   1.919       .  S
O957        C966   1.269       .  A
O958        V962   1.910       .  S
O958        C965   1.268       .  A
O959        V962   1.893       .  S
O959        C964   1.262       .  A
O960        V962   1.893       .  S
O960        C963   1.262       .  A
V961        V962   2.085       .  T
C963       C1756   1.492       .  S
C964       C1804   1.483       .  S
C965       C2689   1.478       .  S
C966       C1780   1.485       .  S
O967        V975   1.911       .  S
O967        C977   1.269       .  A
O968        V975   1.912       .  S
O968        C978   1.268       .  A
O969        V975   1.872       .  S
O969        C979   1.257       .  A
O970        V975   1.870       .  S
O970        C980   1.258       .  A
O971        V976   1.914       .  S
O971        C980   1.268       .  A
O972        V976   1.907       .  S
O972        C979   1.269       .  A
O973        V976   1.884       .  S
O973        C978   1.260       .  A
O974        V976   1.891       .  S
O974        C977   1.261       .  A
V975        V976   2.086       .  T
C977       C2068   1.489       .  S
C978       C1741   1.477       .  S
C979       C2356   1.478       .  S
C980       C1816   1.471       .  S
O981        V989   1.918       .  S
O981        C991   1.271       .  A
O982        V989   1.915       .  S
O982        C992   1.268       .  A
O983        V989   1.874       .  S
O983        C993   1.256       .  A
O984        V989   1.880       .  S
O984        C994   1.261       .  A
O985        V990   1.916       .  S
O985        C994   1.269       .  A
O986        V990   1.911       .  S
O986        C993   1.270       .  A
O987        V990   1.877       .  S
O987        C992   1.258       .  A
O988        V990   1.883       .  S
O988        C991   1.259       .  A
V989        V990   2.085       .  T
C991       C1717   1.492       .  S
C992       C1765   1.471       .  S
C993       C3352   1.484       .  S
C994       C1729   1.486       .  S
O995       V1003   1.902       .  S
O995       C1005   1.267       .  A
O996       V1003   1.903       .  S
O996       C1006   1.266       .  A
O997       V1003   1.886       .  S
O997       C1007   1.260       .  A
O998       V1003   1.886       .  S
O998       C1008   1.261       .  A
O999       V1004   1.903       .  S
O999       C1008   1.266       .  A
O1000      V1004   1.910       .  S
O1000      C1007   1.266       .  A
O1001      V1004   1.896       .  S
O1001      C1006   1.263       .  A
O1002      V1004   1.903       .  S
O1002      C1005   1.265       .  A
V1003      V1004   2.084       .  T
C1005      C1705   1.491       .  S
C1006      C1732   1.479       .  S
C1007      C1744   1.470       .  S
C1008      C3532   1.476       .  S
O1009      V1017   1.911       .  S
O1009      C1019   1.269       .  A
O1010      V1017   1.912       .  S
O1010      C1020   1.268       .  A
O1011      V1017   1.875       .  S
O1011      C1021   1.258       .  A
O1012      V1017   1.868       .  S
O1012      C1022   1.257       .  A
O1013      V1018   1.914       .  S
O1013      C1022   1.269       .  A
O1014      V1018   1.915       .  S
O1014      C1021   1.269       .  A
O1015      V1018   1.881       .  S
O1015      C1020   1.259       .  A
O1016      V1018   1.884       .  S
O1016      C1019   1.259       .  A
V1017      V1018   2.085       .  T
C1019      C1948   1.487       .  S
C1020      C1696   1.475       .  S
C1021      C1681   1.476       .  S
C1022      C2716   1.481       .  S
O1023      V1031   1.909       .  S
O1023      C1033   1.269       .  A
O1024      V1031   1.907       .  S
O1024      C1034   1.269       .  A
O1025      V1031   1.876       .  S
O1025      C1035   1.257       .  A
O1026      V1031   1.876       .  S
O1026      C1036   1.258       .  A
O1027      V1032   1.912       .  S
O1027      C1036   1.267       .  A
O1028      V1032   1.906       .  S
O1028      C1035   1.268       .  A
O1029      V1032   1.886       .  S
O1029      C1034   1.260       .  A
O1030      V1032   1.892       .  S
O1030      C1033   1.262       .  A
V1031      V1032   2.083       .  T
C1033      C1720   1.492       .  S
C1034      C1684   1.482       .  S
C1035      C2248   1.470       .  S
C1036      C1669   1.469       .  S
O1037      V1045   1.912       .  S
O1037      C1047   1.269       .  A
O1038      V1045   1.912       .  S
O1038      C1048   1.267       .  A
O1039      V1045   1.882       .  S
O1039      C1049   1.259       .  A
O1040      V1045   1.882       .  S
O1040      C1050   1.260       .  A
O1041      V1046   1.907       .  S
O1041      C1050   1.266       .  A
O1042      V1046   1.906       .  S
O1042      C1049   1.268       .  A
O1043      V1046   1.886       .  S
O1043      C1048   1.259       .  A
O1044      V1046   1.893       .  S
O1044      C1047   1.262       .  A
V1045      V1046   2.087       .  T
C1047      C1645   1.493       .  S
C1048      C1660   1.470       .  S
C1049      C2884   1.474       .  S
C1050      C1693   1.467       .  S
O1051      V1059   1.911       .  S
O1051      C1061   1.269       .  A
O1052      V1059   1.910       .  S
O1052      C1062   1.268       .  A
O1053      V1059   1.891       .  S
O1053      C1063   1.261       .  A
O1054      V1059   1.892       .  S
O1054      C1064   1.263       .  A
O1055      V1060   1.899       .  S
O1055      C1064   1.266       .  A
O1056      V1060   1.903       .  S
O1056      C1063   1.266       .  A
O1057      V1060   1.883       .  S
O1057      C1062   1.259       .  A
O1058      V1060   1.888       .  S
O1058      C1061   1.261       .  A
V1059      V1060   2.083       .  T
C1061      C1792   1.492       .  S
C1062      C1633   1.473       .  S
C1063      C1657   1.472       .  S
C1064      C3136   1.487       .  S
O1065      V1073   1.905       .  S
O1065      C1075   1.268       .  A
O1066      V1073   1.902       .  S
O1066      C1076   1.267       .  A
O1067      V1073   1.873       .  S
O1067      C1077   1.259       .  A
O1068      V1073   1.879       .  S
O1068      C1078   1.260       .  A
O1069      V1074   1.911       .  S
O1069      C1078   1.268       .  A
O1070      V1074   1.905       .  S
O1070      C1077   1.267       .  A
O1071      V1074   1.893       .  S
O1071      C1076   1.262       .  A
O1072      V1074   1.896       .  S
O1072      C1075   1.263       .  A
V1073      V1074   2.084       .  T
C1075      C2008   1.494       .  S
C1076      C1621   1.484       .  S
C1077      C3601   1.480       .  S
C1078      C1636   1.480       .  S
O1079      V1087   1.910       .  S
O1079      C1089   1.269       .  A
O1080      V1087   1.907       .  S
O1080      C1090   1.266       .  A
O1081      V1087   1.882       .  S
O1081      C1091   1.260       .  A
O1082      V1087   1.880       .  S
O1082      C1092   1.260       .  A
O1083      V1088   1.909       .  S
O1083      C1092   1.268       .  A
O1084      V1088   1.911       .  S
O1084      C1091   1.266       .  A
O1085      V1088   1.883       .  S
O1085      C1090   1.260       .  A
O1086      V1088   1.885       .  S
O1086      C1089   1.260       .  A
V1087      V1088   2.086       .  T
C1089      C1609   1.490       .  S
C1090      C1672   1.469       .  S
C1091      C1624   1.472       .  S
C1092      C2377   1.479       .  S
O1093      V1101   1.905       .  S
O1093      C1103   1.267       .  A
O1094      V1101   1.905       .  S
O1094      C1104   1.267       .  A
O1095      V1101   1.878       .  S
O1095      C1105   1.259       .  A
O1096      V1101   1.877       .  S
O1096      C1106   1.259       .  A
O1097      V1102   1.908       .  S
O1097      C1106   1.268       .  A
O1098      V1102   1.914       .  S
O1098      C1105   1.269       .  A
O1099      V1102   1.887       .  S
O1099      C1104   1.261       .  A
O1100      V1102   1.890       .  S
O1100      C1103   1.261       .  A
V1101      V1102   2.085       .  T
C1103      C1612   1.482       .  S
C1104      C1600   1.481       .  S
C1105      C1585   1.482       .  S
C1106      C2620   1.484       .  S
O1107      V1115   1.911       .  S
O1107      C1117   1.268       .  A
O1108      V1115   1.910       .  S
O1108      C1118   1.268       .  A
O1109      V1115   1.880       .  S
O1109      C1119   1.259       .  A
O1110      V1115   1.878       .  S
O1110      C1120   1.259       .  A
O1111      V1116   1.916       .  S
O1111      C1120   1.269       .  A
O1112      V1116   1.908       .  S
O1112      C1119   1.268       .  A
O1113      V1116   1.886       .  S
O1113      C1118   1.259       .  A
O1114      V1116   1.895       .  S
O1114      C1117   1.262       .  A
V1115      V1116   2.085       .  T
C1117      C1888   1.483       .  S
C1118      C1588   1.475       .  S
C1119      C3097   1.476       .  S
C1120      C1576   1.474       .  S
O1121      V1129   1.909       .  S
O1121      C1131   1.267       .  A
O1122      V1129   1.907       .  S
O1122      C1132   1.267       .  A
O1123      V1129   1.883       .  S
O1123      C1133   1.260       .  A
O1124      V1129   1.884       .  S
O1124      C1134   1.260       .  A
O1125      V1130   1.912       .  S
O1125      C1134   1.268       .  A
O1126      V1130   1.921       .  S
O1126      C1133   1.270       .  A
O1127      V1130   1.890       .  S
O1127      C1132   1.260       .  A
O1128      V1130   1.898       .  S
O1128      C1131   1.264       .  A
V1129      V1130   2.084       .  T
C1131      C1828   1.484       .  S
C1132      C1564   1.469       .  S
C1133      C1549   1.478       .  S
C1134      C2317   1.476       .  S
O1135      V1143   1.919       .  S
O1135      C1145   1.271       .  A
O1136      V1143   1.917       .  S
O1136      C1146   1.269       .  A
O1137      V1143   1.869       .  S
O1137      C1147   1.257       .  A
O1138      V1143   1.877       .  S
O1138      C1148   1.259       .  A
O1139      V1144   1.915       .  S
O1139      C1148   1.268       .  A
O1140      V1144   1.911       .  S
O1140      C1147   1.269       .  A
O1141      V1144   1.889       .  S
O1141      C1146   1.261       .  A
O1142      V1144   1.892       .  S
O1142      C1145   1.261       .  A
V1143      V1144   2.085       .  T
C1145      C1537   1.501       .  S
C1146      C1552   1.483       .  S
C1147      C2776   1.475       .  S
C1148      C1597   1.475       .  S
O1149      V1157   1.922       .  S
O1149      C1159   1.271       .  A
O1150      V1157   1.918       .  S
O1150      C1160   1.269       .  A
O1151      V1157   1.883       .  S
O1151      C1161   1.259       .  A
O1152      V1157   1.879       .  S
O1152      C1162   1.257       .  A
O1153      V1158   1.907       .  S
O1153      C1162   1.270       .  A
O1154      V1158   1.912       .  S
O1154      C1161   1.267       .  A
O1155      V1158   1.877       .  S
O1155      C1160   1.258       .  A
O1156      V1158   1.882       .  S
O1156      C1159   1.260       .  A
V1157      V1158   2.085       .  T
C1159      C1513   1.493       .  S
C1160      C1573   1.474       .  S
C1161      C1525   1.471       .  S
C1162      C3565   1.484       .  S
O1163      V1171   1.910       .  S
O1163      C1173   1.269       .  A
O1164      V1171   1.909       .  S
O1164      C1174   1.268       .  A
O1165      V1171   1.877       .  S
O1165      C1175   1.260       .  A
O1166      V1171   1.880       .  S
O1166      C1176   1.259       .  A
O1167      V1172   1.915       .  S
O1167      C1176   1.270       .  A
O1168      V1172   1.910       .  S
O1168      C1175   1.268       .  A
O1169      V1172   1.890       .  S
O1169      C1174   1.262       .  A
O1170      V1172   1.894       .  S
O1170      C1173   1.262       .  A
V1171      V1172   2.082       .  T
C1173      C1648   1.493       .  S
C1174      C1528   1.489       .  S
C1175      C3292   1.485       .  S
C1176      C1561   1.491       .  S
O1177      V1185   1.916       .  S
O1177      C1187   1.269       .  A
O1178      V1185   1.914       .  S
O1178      C1188   1.268       .  A
O1179      V1185   1.883       .  S
O1179      C1189   1.260       .  A
O1180      V1185   1.878       .  S
O1180      C1190   1.260       .  A
O1181      V1186   1.912       .  S
O1181      C1190   1.268       .  A
O1182      V1186   1.912       .  S
O1182      C1189   1.268       .  A
O1183      V1186   1.889       .  S
O1183      C1188   1.261       .  A
O1184      V1186   1.890       .  S
O1184      C1187   1.263       .  A
V1185      V1186   2.085       .  T
C1187      C1708   1.495       .  S
C1188      C1504   1.477       .  S
C1189      C1492   1.477       .  S
C1190      C3052   1.486       .  S
O1191      V1199   1.918       .  S
O1191      C1201   1.271       .  A
O1192      V1199   1.917       .  S
O1192      C1202   1.271       .  A
O1193      V1199   1.880       .  S
O1193      C1203   1.258       .  A
O1194      V1199   1.883       .  S
O1194      C1204   1.259       .  A
O1195      V1200   1.916       .  S
O1195      C1204   1.269       .  A
O1196      V1200   1.909       .  S
O1196      C1203   1.269       .  A
O1197      V1200   1.887       .  S
O1197      C1202   1.260       .  A
O1198      V1200   1.896       .  S
O1198      C1201   1.262       .  A
V1199      V1200   2.084       .  T
C1201      C1540   1.496       .  S
C1202      C1480   1.490       .  S
C1203      C2920   1.475       .  S
C1204      C1501   1.478       .  S
O1205      V1213   1.916       .  S
O1205      C1215   1.270       .  A
O1206      V1213   1.912       .  S
O1206      C1216   1.270       .  A
O1207      V1213   1.886       .  S
O1207      C1217   1.260       .  A
O1208      V1213   1.888       .  S
O1208      C1218   1.261       .  A
O1209      V1214   1.912       .  S
O1209      C1218   1.268       .  A
O1210      V1214   1.910       .  S
O1210      C1217   1.267       .  A
O1211      V1214   1.885       .  S
O1211      C1216   1.260       .  A
O1212      V1214   1.891       .  S
O1212      C1215   1.262       .  A
V1213      V1214   2.083       .  T
C1215      C1453   1.493       .  S
C1216      C1489   1.487       .  S
C1217      C2572   1.471       .  S
C1218      C1465   1.478       .  S
O1219      V1227   1.911       .  S
O1219      C1229   1.269       .  A
O1220      V1227   1.914       .  S
O1220      C1230   1.268       .  A
O1221      V1227   1.878       .  S
O1221      C1231   1.259       .  A
O1222      V1227   1.869       .  S
O1222      C1232   1.258       .  A
O1223      V1228   1.909       .  S
O1223      C1232   1.268       .  A
O1224      V1228   1.911       .  S
O1224      C1231   1.268       .  A
O1225      V1228   1.890       .  S
O1225      C1230   1.261       .  A
O1226      V1228   1.890       .  S
O1226      C1229   1.262       .  A
V1227      V1228   2.086       .  T
C1229      C1516   1.493       .  S
C1230      C1468   1.479       .  S
C1231      C1444   1.473       .  S
C1232      C2488   1.477       .  S
O1233      V1241   1.908       .  S
O1233      C1243   1.269       .  A
O1234      V1241   1.905       .  S
O1234      C1244   1.268       .  A
O1235      V1241   1.883       .  S
O1235      C1245   1.260       .  A
O1236      V1241   1.883       .  S
O1236      C1246   1.260       .  A
O1237      V1242   1.912       .  S
O1237      C1246   1.267       .  A
O1238      V1242   1.906       .  S
O1238      C1245   1.268       .  A
O1239      V1242   1.886       .  S
O1239      C1244   1.261       .  A
O1240      V1242   1.895       .  S
O1240      C1243   1.263       .  A
V1241      V1242   2.083       .  T
C1243      C1753   1.494       .  S
C1244      C1441   1.481       .  S
C1245      C2296   1.481       .  S
C1246      C1429   1.475       .  S
O1247      V1255   1.921       .  S
O1247      C1257   1.272       .  A
O1248      V1255   1.917       .  S
O1248      C1258   1.269       .  A
O1249      V1255   1.880       .  S
O1249      C1259   1.259       .  A
O1250      V1255   1.870       .  S
O1250      C1260   1.256       .  A
O1251      V1256   1.919       .  S
O1251      C1260   1.271       .  A
O1252      V1256   1.922       .  S
O1252      C1259   1.270       .  A
O1253      V1256   1.881       .  S
O1253      C1258   1.259       .  A
O1254      V1256   1.891       .  S
O1254      C1257   1.261       .  A
V1255      V1256   2.085       .  T
C1257      C1417   1.499       .  S
C1258      C1432   1.475       .  S
C1259      C1477   1.481       .  S
C1260      C3328   1.484       .  S
O1261      V1269   1.915       .  S
O1261      C1271   1.270       .  A
O1262      V1269   1.906       .  S
O1262      C1272   1.267       .  A
O1263      V1269   1.884       .  S
O1263      C1273   1.259       .  A
O1264      V1269   1.888       .  S
O1264      C1274   1.260       .  A
O1265      V1270   1.912       .  S
O1265      C1274   1.267       .  A
O1266      V1270   1.906       .  S
O1266      C1273   1.266       .  A
O1267      V1270   1.896       .  S
O1267      C1272   1.263       .  A
O1268      V1270   1.899       .  S
O1268      C1271   1.264       .  A
V1269      V1270   2.085       .  T
C1271      C2104   1.501       .  S
C1272      C1405   1.486       .  S
C1273      C2464   1.471       .  S
C1274      C1393   1.473       .  S
O1275      V1283   1.907       .  S
O1275      C1285   1.269       .  A
O1276      V1283   1.908       .  S
O1276      C1286   1.269       .  A
O1277      V1283   1.886       .  S
O1277      C1287   1.260       .  A
O1278      V1283   1.885       .  S
O1278      C1288   1.260       .  A
O1279      V1284   1.909       .  S
O1279      C1288   1.267       .  A
O1280      V1284   1.906       .  S
O1280      C1287   1.268       .  A
O1281      V1284   1.891       .  S
O1281      C1286   1.261       .  A
O1282      V1284   1.899       .  S
O1282      C1285   1.263       .  A
V1283      V1284   2.084       .  T
C1285      C1456   1.496   1_565  S
C1286      C1381   1.486       .  S
C1287      C2812   1.482       .  S
C1288      C1369   1.474       .  S
O1289      V1297   1.915       .  S
O1289      C1299   1.270       .  A
O1290      V1297   1.911       .  S
O1290      C1300   1.267       .  A
O1291      V1297   1.881       .  S
O1291      C1301   1.260       .  A
O1292      V1297   1.876       .  S
O1292      C1302   1.258       .  A
O1293      V1298   1.915       .  S
O1293      C1302   1.270       .  A
O1294      V1298   1.918       .  S
O1294      C1301   1.269       .  A
O1295      V1298   1.889       .  S
O1295      C1300   1.260       .  A
O1296      V1298   1.893       .  S
O1296      C1299   1.262       .  A
V1297      V1298   2.085       .  T
C1299      C1909   1.498       .  S
C1300      C1372   1.475       .  S
C1301      C1408   1.481       .  S
C1302      C2272   1.482       .  S
O1303      V1311   1.921       .  S
O1303      C1313   1.272       .  A
O1304      V1311   1.916       .  S
O1304      C1314   1.270       .  A
O1305      V1311   1.881       .  S
O1305      C1315   1.259       .  A
O1306      V1311   1.877       .  S
O1306      C1316   1.258       .  A
O1307      V1312   1.906       .  S
O1307      C1316   1.267       .  A
O1308      V1312   1.910       .  S
O1308      C1315   1.267       .  A
O1309      V1312   1.890       .  S
O1309      C1314   1.262       .  A
O1310      V1312   1.892       .  S
O1310      C1313   1.262       .  A
V1311      V1312   2.084       .  T
C1313      C1420   1.500       .  S
C1314      C1396   1.495       .  S
C1315      C1360   1.477       .  S
C1316      C3460   1.469       .  S
O1317      V1325   1.918       .  S
O1317      C1327   1.270       .  A
O1318      V1325   1.916       .  S
O1318      C1328   1.270       .  A
O1319      V1325   1.883       .  S
O1319      C1329   1.260       .  A
O1320      V1325   1.878       .  S
O1320      C1330   1.257       .  A
O1321      V1326   1.913       .  S
O1321      C1330   1.270       .  A
O1322      V1326   1.915       .  S
O1322      C1329   1.269       .  A
O1323      V1326   1.887       .  S
O1323      C1328   1.260       .  A
O1324      V1326   1.888       .  S
O1324      C1327   1.262       .  A
V1325      V1326   2.084       .  T
C1327      C2080   1.497       .  S
C1328      C1345   1.485       .  S
C1329      C1384   1.481       .  S
C1330      C2956   1.487       .  S
O1331      V1339   1.904       .  S
O1331      C1341   1.268       .  A
O1332      V1339   1.903       .  S
O1332      C1342   1.267       .  A
O1333      V1339   1.882       .  S
O1333      C1343   1.259       .  A
O1334      V1339   1.885       .  S
O1334      C1344   1.260       .  A
O1335      V1340   1.915       .  S
O1335      C1344   1.268       .  A
O1336      V1340   1.908       .  S
O1336      C1343   1.267       .  A
O1337      V1340   1.888       .  S
O1337      C1342   1.261       .  A
O1338      V1340   1.900       .  S
O1338      C1341   1.264       .  A
V1339      V1340   2.085       .  T
C1341      C1840   1.487       .  S
C1342      C1357   1.477       .  S
C1343      C3061   1.467       .  S
C1344      C1348   1.474       .  S
C1345      C1346   1.408       .  A
C1345      C1350   1.413       .  A
C1346      C1347   1.400       .  A
C1346      H1351   1.085       .  S
C1347      C1348   1.407       .  A
C1347      C1354   1.444       .  S
C1348      C1349   1.405       .  A
C1349      C1350   1.404       .  A
C1349      H1352   1.085       .  S
C1350      C1353   1.444       .  S
C1353      N1355   1.157       .  T
C1354      N1356   1.157       .  T
C1357      C1358   1.400       .  A
C1357      C1362   1.416       .  A
C1358      C1359   1.396       .  A
C1358      H1363   1.085       .  S
C1359      C1360   1.417       .  A
C1359      C1366   1.446       .  S
C1360      C1361   1.401       .  A
C1361      C1362   1.401       .  A
C1361      H1364   1.085       .  S
C1362      C1365   1.444       .  S
C1365      N1367   1.157       .  T
C1366      N1368   1.157       .  T
C1369      C1370   1.402       .  A
C1369      C1374   1.413       .  A
C1370      C1371   1.398       .  A
C1370      H1375   1.085       .  S
C1371      C1372   1.412       .  A
C1371      C1378   1.445       .  S
C1372      C1373   1.403       .  A
C1373      C1374   1.403       .  A
C1373      H1376   1.085       .  S
C1374      C1377   1.444       .  S
C1377      N1379   1.157       .  T
C1378      N1380   1.157       .  T
C1381      C1382   1.402       .  A
C1381      C1386   1.419       .  A
C1382      C1383   1.398       .  A
C1382      H1387   1.085       .  S
C1383      C1384   1.416       .  A
C1383      C1390   1.446       .  S
C1384      C1385   1.401       .  A
C1385      C1386   1.404       .  A
C1385      H1388   1.085       .  S
C1386      C1389   1.444       .  S
C1389      N1391   1.157       .  T
C1390      N1392   1.157       .  T
C1393      C1394   1.403       .  A
C1393      C1398   1.403       .  A
C1394      C1395   1.402       .  A
C1394      H1399   1.085       .  S
C1395      C1396   1.416       .  A
C1395      C1402   1.443       .  S
C1396      C1397   1.415       .  A
C1397      C1398   1.403       .  A
C1397      H1400   1.084       .  S
C1398      C1401   1.443       .  S
C1401      N1403   1.157       .  T
C1402      N1404   1.157       .  T
C1405      C1406   1.411       .  A
C1405      C1410   1.412       .  A
C1406      C1407   1.406       .  A
C1406      H1411   1.084       .  S
C1407      C1408   1.408       .  A
C1407      C1414   1.443       .  S
C1408      C1409   1.406       .  A
C1409      C1410   1.397       .  A
C1409      H1412   1.085       .  S
C1410      C1413   1.445       .  S
C1413      N1415   1.157       .  T
C1414      N1416   1.157       .  T
C1417      C1418   1.402       .  A
C1417      C1422   1.423       .  A
C1418      C1419   1.405       .  A
C1418      H1423   1.085       .  S
C1419      C1420   1.422       .  A
C1419      C1426   1.444       .  S
C1420      C1421   1.404       .  A
C1421      C1422   1.406       .  A
C1421      H1424   1.085       .  S
C1422      C1425   1.445       .  S
C1425      N1427   1.158       .  T
C1426      N1428   1.157       .  T
C1429      C1430   1.401       .  A
C1429      C1434   1.414       .  A
C1430      C1431   1.397       .  A
C1430      H1435   1.085       .  S
C1431      C1432   1.413       .  A
C1431      C1438   1.445       .  S
C1432      C1433   1.403       .  A
C1433      C1434   1.405       .  A
C1433      H1436   1.085       .  S
C1434      C1437   1.444       .  S
C1437      N1439   1.157       .  T
C1438      N1440   1.157       .  T
C1441      C1442   1.410       .  A
C1441      C1446   1.412       .  A
C1442      C1443   1.401       .  A
C1442      H1447   1.084       .  S
C1443      C1444   1.406       .  A
C1443      C1450   1.444       .  S
C1444      C1445   1.405       .  A
C1445      C1446   1.396       .  A
C1445      H1448   1.085       .  S
C1446      C1449   1.445       .  S
C1449      N1451   1.157       .  T
C1450      N1452   1.157       .  T
C1453      C1454   1.404       .  A
C1453      C1458   1.419       .  A
C1454      C1455   1.406       .  A
C1454      H1459   1.085       .  S
C1455      C1456   1.420       .  A
C1455      C1462   1.444       .  S
C1456      C1457   1.404       .  A
C1457      C1458   1.401       .  A
C1457      H1460   1.085   1_545  S
C1458      C1461   1.445       .  S
C1461      N1463   1.157       .  T
C1462      N1464   1.157       .  T
C1465      C1466   1.402       .  A
C1465      C1470   1.414       .  A
C1466      C1467   1.399       .  A
C1466      H1471   1.085       .  S
C1467      C1468   1.413       .  A
C1467      C1474   1.445       .  S
C1468      C1469   1.403       .  A
C1469      C1470   1.405       .  A
C1469      H1472   1.085       .  S
C1470      C1473   1.444       .  S
C1473      N1475   1.157       .  T
C1474      N1476   1.157       .  T
C1477      C1478   1.398       .  A
C1477      C1482   1.417       .  A
C1478      C1479   1.405       .  A
C1478      H1483   1.085       .  S
C1479      C1480   1.423       .  A
C1479      C1486   1.444       .  S
C1480      C1481   1.401       .  A
C1481      C1482   1.399       .  A
C1481      H1484   1.085       .  S
C1482      C1485   1.446       .  S
C1485      N1487   1.157       .  T
C1486      N1488   1.157       .  T
C1489      C1490   1.402       .  A
C1489      C1494   1.422       .  A
C1490      C1491   1.398       .  A
C1490      H1495   1.085       .  S
C1491      C1492   1.415       .  A
C1491      C1498   1.445       .  S
C1492      C1493   1.399       .  A
C1493      C1494   1.402       .  A
C1493      H1496   1.085       .  S
C1494      C1497   1.444       .  S
C1497      N1499   1.157       .  T
C1498      N1500   1.157       .  T
C1501      C1502   1.403       .  A
C1501      C1506   1.413       .  A
C1502      C1503   1.398       .  A
C1502      H1507   1.085       .  S
C1503      C1504   1.412       .  A
C1503      C1510   1.446       .  S
C1504      C1505   1.403       .  A
C1505      C1506   1.406       .  A
C1505      H1508   1.085       .  S
C1506      C1509   1.444       .  S
C1509      N1511   1.157       .  T
C1510      N1512   1.157       .  T
C1513      C1514   1.411       .  A
C1513      C1518   1.411       .  A
C1514      C1515   1.401   1_455  A
C1514      H1519   1.085       .  S
C1515      C1516   1.412       .  A
C1515      C1522   1.444       .  S
C1516      C1517   1.412   1_655  A
C1517      C1518   1.405       .  A
C1517      H1520   1.084       .  S
C1518      C1521   1.443       .  S
C1521      N1523   1.157       .  T
C1522      N1524   1.157       .  T
C1525      C1526   1.403       .  A
C1525      C1530   1.404       .  A
C1526      C1527   1.398       .  A
C1526      H1531   1.089       .  S
C1527      C1528   1.415       .  A
C1527      C1534   1.444       .  S
C1528      C1529   1.413       .  A
C1529      C1530   1.402       .  A
C1529      H1532   1.084       .  S
C1530      C1533   1.443       .  S
C1533      N1535   1.157       .  T
C1534      N1536   1.157       .  T
C1537      C1538   1.405       .  A
C1537      C1542   1.423       .  A
C1538      C1539   1.405       .  A
C1538      H1543   1.085       .  S
C1539      C1540   1.419       .  A
C1539      C1546   1.444       .  S
C1540      C1541   1.402       .  A
C1541      C1542   1.404       .  A
C1541      H1544   1.085       .  S
C1542      C1545   1.444       .  S
C1545      N1547   1.157       .  T
C1546      N1548   1.157       .  T
C1549      C1550   1.402       .  A
C1549      C1554   1.413       .  A
C1550      C1551   1.400       .  A
C1550      H1555   1.085       .  S
C1551      C1552   1.414       .  A
C1551      C1558   1.445       .  S
C1552      C1553   1.404       .  A
C1553      C1554   1.406       .  A
C1553      H1556   1.085       .  S
C1554      C1557   1.443       .  S
C1557      N1559   1.157       .  T
C1558      N1560   1.157       .  T
C1561      C1562   1.408       .  A
C1561      C1566   1.423       .  A
C1562      C1563   1.403       .  A
C1562      H1567   1.084       .  S
C1563      C1564   1.409       .  A
C1563      C1570   1.444       .  S
C1564      C1565   1.395       .  A
C1565      C1566   1.397       .  A
C1565      H1568   1.085       .  S
C1566      C1569   1.445       .  S
C1569      N1571   1.157       .  T
C1570      N1572   1.157       .  T
C1573      C1574   1.401       .  A
C1573      C1578   1.413       .  A
C1574      C1575   1.404       .  A
C1574      H1579   1.097       .  S
C1575      C1576   1.415       .  A
C1575      C1582   1.444       .  S
C1576      C1577   1.399       .  A
C1577      C1578   1.394       .  A
C1577      H1580   1.100       .  S
C1578      C1581   1.446       .  S
C1581      N1583   1.157       .  T
C1582      N1584   1.157       .  T
C1585      C1586   1.409       .  A
C1585      C1590   1.411       .  A
C1586      C1587   1.396       .  A
C1586      H1591   1.085       .  S
C1587      C1588   1.407       .  A
C1587      C1594   1.445       .  S
C1588      C1589   1.407       .  A
C1589      C1590   1.403       .  A
C1589      H1592   1.085       .  S
C1590      C1593   1.443       .  S
C1593      N1595   1.157       .  T
C1594      N1596   1.157       .  T
C1597      C1598   1.405       .  A
C1597      C1602   1.406       .  A
C1598      C1599   1.396       .  A
C1598      H1603   1.086       .  S
C1599      C1600   1.411       .  A
C1599      C1606   1.445       .  S
C1600      C1601   1.411       .  A
C1601      C1602   1.403       .  A
C1601      H1604   1.085       .  S
C1602      C1605   1.443       .  S
C1605      N1607   1.157       .  T
C1606      N1608   1.157       .  T
C1609      C1610   1.405       .  A
C1609      C1614   1.421   1_556  A
C1610      C1611   1.401   1_556  A
C1610      H1615   1.084       .  S
C1611      C1612   1.416       .  A
C1611      C1618   1.445       .  S
C1612      C1613   1.400       .  A
C1613      C1614   1.399       .  A
C1613      H1616   1.085       .  S
C1614      C1617   1.445       .  S
C1617      N1619   1.157       .  T
C1618      N1620   1.157       .  T
C1621      C1622   1.403       .  A
C1621      C1626   1.420       .  A
C1622      C1623   1.394       .  A
C1622      H1627   1.085       .  S
C1623      C1624   1.411       .  A
C1623      C1630   1.446       .  S
C1624      C1625   1.400       .  A
C1625      C1626   1.404       .  A
C1625      H1628   1.085       .  S
C1626      C1629   1.444       .  S
C1629      N1631   1.157       .  T
C1630      N1632   1.157       .  T
C1633      C1634   1.406       .  A
C1633      C1638   1.407       .  A
C1634      C1635   1.402       .  A
C1634      H1639   1.085       .  S
C1635      C1636   1.410       .  A
C1635      C1642   1.443       .  S
C1636      C1637   1.409       .  A
C1637      C1638   1.397       .  A
C1637      H1640   1.085       .  S
C1638      C1641   1.445       .  S
C1641      N1643   1.157       .  T
C1642      N1644   1.157       .  T
C1645      C1646   1.404       .  A
C1645      C1650   1.420       .  A
C1646      C1647   1.403       .  A
C1646      H1651   1.085       .  S
C1647      C1648   1.420       .  A
C1647      C1654   1.444       .  S
C1648      C1649   1.404       .  A
C1649      C1650   1.402       .  A
C1649      H1652   1.085       .  S
C1650      C1653   1.444       .  S
C1653      N1655   1.157       .  T
C1654      N1656   1.157       .  T
C1657      C1658   1.404       .  A
C1657      C1662   1.410       .  A
C1658      C1659   1.400       .  A
C1658      H1663   1.085       .  S
C1659      C1660   1.407       .  A
C1659      C1666   1.442       .  S
C1660      C1661   1.403       .  A
C1661      C1662   1.399       .  A
C1661      H1664   1.084       .  S
C1662      C1665   1.445       .  S
C1665      N1667   1.157       .  T
C1666      N1668   1.157       .  T
C1669      C1670   1.402       .  A
C1669      C1674   1.412       .  A
C1670      C1671   1.394       .  A
C1670      H1675   1.085       .  S
C1671      C1672   1.410       .  A
C1671      C1678   1.446       .  S
C1672      C1673   1.403       .  A
C1673      C1674   1.402       .  A
C1673      H1676   1.085       .  S
C1674      C1677   1.444       .  S
C1677      N1679   1.157       .  T
C1678      N1680   1.157       .  T
C1681      C1682   1.406       .  A
C1681      C1686   1.407       .  A
C1682      C1683   1.395       .  A
C1682      H1687   1.085       .  S
C1683      C1684   1.410       .  A
C1683      C1690   1.445       .  S
C1684      C1685   1.411       .  A
C1685      C1686   1.403       .  A
C1685      H1688   1.084       .  S
C1686      C1689   1.444       .  S
C1689      N1691   1.157       .  T
C1690      N1692   1.157       .  T
C1693      C1694   1.404       .  A
C1693      C1698   1.407       .  A
C1694      C1695   1.402       .  A
C1694      H1699   1.084       .  S
C1695      C1696   1.411       .  A
C1695      C1702   1.444       .  S
C1696      C1697   1.406       .  A
C1697      C1698   1.396       .  A
C1697      H1700   1.085       .  S
C1698      C1701   1.445       .  S
C1701      N1703   1.157       .  T
C1702      N1704   1.157       .  T
C1705      C1706   1.408   1_556  A
C1705      C1710   1.412       .  A
C1706      C1707   1.406       .  A
C1706      H1711   1.085       .  S
C1707      C1708   1.415       .  A
C1707      C1714   1.443       .  S
C1708      C1709   1.409       .  A
C1709      C1710   1.400   1_554  A
C1709      H1712   1.084       .  S
C1710      C1713   1.445       .  S
C1713      N1715   1.157       .  T
C1714      N1716   1.157       .  T
C1717      C1718   1.403       .  A
C1717      C1722   1.421   1_655  A
C1718      C1719   1.404   1_655  A
C1718      H1723   1.085       .  S
C1719      C1720   1.420       .  A
C1719      C1726   1.444       .  S
C1720      C1721   1.402       .  A
C1721      C1722   1.400       .  A
C1721      H1724   1.085       .  S
C1722      C1725   1.445       .  S
C1725      N1727   1.158       .  T
C1726      N1728   1.157       .  T
C1729      C1730   1.408       .  A
C1729      C1734   1.412       .  A
C1730      C1731   1.396       .  A
C1730      H1735   1.085       .  S
C1731      C1732   1.409       .  A
C1731      C1738   1.445       .  S
C1732      C1733   1.407       .  A
C1733      C1734   1.405       .  A
C1733      H1736   1.085       .  S
C1734      C1737   1.443       .  S
C1737      N1739   1.157       .  T
C1738      N1740   1.157       .  T
C1741      C1742   1.403       .  A
C1741      C1746   1.416       .  A
C1742      C1743   1.402       .  A
C1742      H1747   1.085       .  S
C1743      C1744   1.412       .  A
C1743      C1750   1.444       .  S
C1744      C1745   1.400       .  A
C1745      C1746   1.398       .  A
C1745      H1748   1.085       .  S
C1746      C1749   1.445       .  S
C1749      N1751   1.157       .  T
C1750      N1752   1.157       .  T
C1753      C1754   1.405       .  A
C1753      C1758   1.420       .  A
C1754      C1755   1.402       .  A
C1754      H1759   1.085       .  S
C1755      C1756   1.419       .  A
C1755      C1762   1.445       .  S
C1756      C1757   1.403       .  A
C1757      C1758   1.403       .  A
C1757      H1760   1.085       .  S
C1758      C1761   1.444       .  S
C1761      N1763   1.157       .  T
C1762      N1764   1.157       .  T
C1765      C1766   1.403       .  A
C1765      C1770   1.412       .  A
C1766      C1767   1.404       .  A
C1766      H1771   1.085       .  S
C1767      C1768   1.412       .  A
C1767      C1774   1.444       .  S
C1768      C1769   1.401       .  A
C1769      C1770   1.394       .  A
C1769      H1772   1.085       .  S
C1770      C1773   1.446       .  S
C1773      N1775   1.157       .  T
C1774      N1776   1.157       .  T
C1777      C1778   1.410       .  A
C1777      C1782   1.412       .  A
C1778      C1779   1.408       .  A
C1778      H1783   1.084       .  S
C1779      C1780   1.410       .  A
C1779      C1786   1.443       .  S
C1780      C1781   1.406       .  A
C1781      C1782   1.399       .  A
C1781      H1784   1.085       .  S
C1782      C1785   1.445       .  S
C1785      N1787   1.157       .  T
C1786      N1788   1.157       .  T
C1789      C1790   1.401       .  A
C1789      C1794   1.418       .  A
C1790      C1791   1.400       .  A
C1790      H1795   1.085       .  S
C1791      C1792   1.421       .  A
C1791      C1798   1.444       .  S
C1792      C1793   1.404       .  A
C1793      C1794   1.402       .  A
C1793      H1796   1.085       .  S
C1794      C1797   1.445       .  S
C1797      N1799   1.157       .  T
C1798      N1800   1.157       .  T
C1801      C1802   1.406       .  A
C1801      C1806   1.407       .  A
C1802      C1803   1.397       .  A
C1802      H1807   1.085       .  S
C1803      C1804   1.411       .  A
C1803      C1810   1.445       .  S
C1804      C1805   1.411       .  A
C1805      C1806   1.405       .  A
C1805      H1808   1.085       .  S
C1806      C1809   1.443       .  S
C1809      N1811   1.157       .  T
C1810      N1812   1.157       .  T
C1813      C1814   1.411       .  A
C1813      C1818   1.409       .  A
C1814      C1815   1.402       .  A
C1814      H1819   1.085       .  S
C1815      C1816   1.405       .  A
C1815      C1822   1.443       .  S
C1816      C1817   1.405       .  A
C1817      C1818   1.393       .  A
C1817      H1820   1.086       .  S
C1818      C1821   1.445       .  S
C1821      N1823   1.157       .  T
C1822      N1824   1.157       .  T
C1825      C1826   1.406       .  A
C1825      C1830   1.420   1_565  A
C1826      C1827   1.402   1_565  A
C1826      H1831   1.084       .  S
C1827      C1828   1.414       .  A
C1827      C1834   1.445       .  S
C1828      C1829   1.401       .  A
C1829      C1830   1.404       .  A
C1829      H1832   1.085       .  S
C1830      C1833   1.444       .  S
C1833      N1835   1.157       .  T
C1834      N1836   1.157       .  T
C1837      C1838   1.407       .  A
C1837      C1842   1.423       .  A
C1838      C1839   1.406       .  A
C1838      H1843   1.084       .  S
C1839      C1840   1.417       .  A
C1839      C1846   1.444       .  S
C1840      C1841   1.399       .  A
C1841      C1842   1.399       .  A
C1841      H1844   1.085       .  S
C1842      C1845   1.445       .  S
C1845      N1847   1.157       .  T
C1846      N1848   1.157       .  T
C1849      C1850   1.407       .  A
C1849      C1854   1.411       .  A
C1850      C1851   1.395       .  A
C1850      H1855   1.085       .  S
C1851      C1852   1.405       .  A
C1851      C1858   1.445       .  S
C1852      C1853   1.405       .  A
C1853      C1854   1.405       .  A
C1853      H1856   1.085       .  S
C1854      C1857   1.443       .  S
C1857      N1859   1.157       .  T
C1858      N1860   1.157       .  T
C1861      C1862   1.398       .  A
C1861      C1866   1.413       .  A
C1862      C1863   1.399       .  A
C1862      H1867   1.085       .  S
C1863      C1864   1.423       .  A
C1863      C1870   1.445       .  S
C1864      C1865   1.406       .  A
C1865      C1866   1.403       .  A
C1865      H1868   1.084       .  S
C1866      C1869   1.444       .  S
C1869      N1871   1.157       .  T
C1870      N1872   1.157       .  T
C1873      C1874   1.399       .  A
C1873      C1878   1.417       .  A
C1874      C1875   1.404       .  A
C1874      H1879   1.085       .  S
C1875      C1876   1.420       .  A
C1875      C1882   1.444       .  S
C1876      C1877   1.399       .  A
C1877      C1878   1.392       .  A
C1877      H1880   1.085       .  S
C1878      C1881   1.447       .  S
C1881      N1883   1.157       .  T
C1882      N1884   1.157       .  T
C1885      C1886   1.405       .  A
C1885      C1890   1.422       .  A
C1886      C1887   1.404       .  A
C1886      H1891   1.084       .  S
C1887      C1888   1.415       .  A
C1887      C1894   1.445       .  S
C1888      C1889   1.399       .  A
C1889      C1890   1.403       .  A
C1889      H1892   1.085       .  S
C1890      C1893   1.444       .  S
C1893      N1895   1.157       .  T
C1894      N1896   1.157       .  T
C1897      C1898   1.403       .  A
C1897      C1902   1.413       .  A
C1898      C1899   1.405       .  A
C1898      H1903   1.085       .  S
C1899      C1900   1.414       .  A
C1899      C1906   1.444       .  S
C1900      C1901   1.402       .  A
C1901      C1902   1.397       .  A
C1901      H1904   1.085       .  S
C1902      C1905   1.446       .  S
C1905      N1907   1.157       .  T
C1906      N1908   1.157       .  T
C1909      C1910   1.406       .  A
C1909      C1914   1.422   1_655  A
C1910      C1911   1.403   1_655  A
C1910      H1915   1.084       .  S
C1911      C1912   1.414       .  A
C1911      C1918   1.444       .  S
C1912      C1913   1.402       .  A
C1913      C1914   1.405       .  A
C1913      H1916   1.085       .  S
C1914      C1917   1.444       .  S
C1917      N1919   1.158       .  T
C1918      N1920   1.157       .  T
C1921      C1922   1.402       .  A
C1921      C1926   1.413       .  A
C1922      C1923   1.399       .  A
C1922      H1927   1.085       .  S
C1923      C1924   1.414       .  A
C1923      C1930   1.445       .  S
C1924      C1925   1.403       .  A
C1925      C1926   1.404       .  A
C1925      H1928   1.085       .  S
C1926      C1929   1.444       .  S
C1929      N1931   1.157       .  T
C1930      N1932   1.157       .  T
C1933      C1934   1.412       .  A
C1933      C1938   1.415       .  A
C1934      C1935   1.397       .  A
C1934      H1939   1.084       .  S
C1935      C1936   1.405       .  A
C1935      C1942   1.445       .  S
C1936      C1937   1.406       .  A
C1937      C1938   1.407       .  A
C1937      H1940   1.085       .  S
C1938      C1941   1.443       .  S
C1941      N1943   1.157       .  T
C1942      N1944   1.157       .  T
C1945      C1946   1.403       .  A
C1945      C1950   1.420   1_565  A
C1946      C1947   1.399   1_565  A
C1946      H1951   1.085       .  S
C1947      C1948   1.419       .  A
C1947      C1954   1.445       .  S
C1948      C1949   1.402       .  A
C1949      C1950   1.401       .  A
C1949      H1952   1.085       .  S
C1950      C1953   1.444       .  S
C1953      N1955   1.157       .  T
C1954      N1956   1.158       .  T
C1957      C1958   1.398       .  A
C1957      C1962   1.418       .  A
C1958      C1959   1.394       .  A
C1958      H1963   1.085       .  S
C1959      C1960   1.416       .  A
C1959      C1966   1.445       .  S
C1960      C1961   1.400       .  A
C1961      C1962   1.402       .  A
C1961      H1964   1.085       .  S
C1962      C1965   1.444       .  S
C1965      N1967   1.157       .  T
C1966      N1968   1.157       .  T
C1969      C1970   1.409   1_556  A
C1969      C1974   1.411       .  A
C1970      C1971   1.400       .  A
C1970      H1975   1.085       .  S
C1971      C1972   1.413       .  A
C1971      C1978   1.444       .  S
C1972      C1973   1.412       .  A
C1973      C1974   1.405   1_554  A
C1973      H1976   1.084       .  S
C1974      C1977   1.444       .  S
C1977      N1979   1.157       .  T
C1978      N1980   1.157       .  T
C1981      C1982   1.397       .  A
C1981      C1986   1.412       .  A
C1982      C1983   1.400       .  A
C1982      H1987   1.085       .  S
C1983      C1984   1.421       .  A
C1983      C1990   1.444       .  S
C1984      C1985   1.403       .  A
C1985      C1986   1.396       .  A
C1985      H1988   1.084       .  S
C1986      C1989   1.446       .  S
C1989      N1991   1.157       .  T
C1990      N1992   1.157       .  T
C1993      C1994   1.405       .  A
C1993      C1998   1.411       .  A
C1994      C1995   1.397       .  A
C1994      H1999   1.085       .  S
C1995      C1996   1.408       .  A
C1995      C2002   1.445       .  S
C1996      C1997   1.404       .  A
C1997      C1998   1.402       .  A
C1997      H2000   1.085       .  S
C1998      C2001   1.444       .  S
C2001      N2003   1.157       .  T
C2002      N2004   1.157       .  T
C2005      C2006   1.402       .  A
C2005      C2010   1.416       .  A
C2006      C2007   1.403       .  A
C2006      H2011   1.085       .  S
C2007      C2008   1.421       .  A
C2007      C2014   1.444       .  S
C2008      C2009   1.406       .  A
C2009      C2010   1.401       .  A
C2009      H2012   1.085       .  S
C2010      C2013   1.445       .  S
C2013      N2015   1.157       .  T
C2014      N2016   1.157       .  T
C2017      C2018   1.409       .  A
C2017      C2022   1.413       .  A
C2018      C2019   1.393       .  A
C2018      H2023   1.084       .  S
C2019      C2020   1.405       .  A
C2019      C2026   1.445       .  S
C2020      C2021   1.405       .  A
C2021      C2022   1.403       .  A
C2021      H2024   1.085       .  S
C2022      C2025   1.444       .  S
C2025      N2027   1.157       .  T
C2026      N2028   1.157       .  T
C2029      C2030   1.408       .  A
C2029      C2034   1.412       .  A
C2030      C2031   1.404       .  A
C2030      H2035   1.085       .  S
C2031      C2032   1.415       .  A
C2031      C2038   1.444       .  S
C2032      C2033   1.411       .  A
C2033      C2034   1.405       .  A
C2033      H2036   1.084       .  S
C2034      C2037   1.444       .  S
C2037      N2039   1.157       .  T
C2038      N2040   1.157       .  T
C2041      C2042   1.410       .  A
C2041      C2046   1.413       .  A
C2042      C2043   1.396       .  A
C2042      H2047   1.085       .  S
C2043      C2044   1.406       .  A
C2043      C2050   1.444       .  S
C2044      C2045   1.407       .  A
C2045      C2046   1.407       .  A
C2045      H2048   1.085       .  S
C2046      C2049   1.443       .  S
C2049      N2051   1.157       .  T
C2050      N2052   1.157       .  T
C2053      C2054   1.404       .  A
C2053      C2058   1.410       .  A
C2054      C2055   1.406       .  A
C2054      H2059   1.085       .  S
C2055      C2056   1.413       .  A
C2055      C2062   1.444       .  S
C2056      C2057   1.403       .  A
C2057      C2058   1.396       .  A
C2057      H2060   1.085       .  S
C2058      C2061   1.446       .  S
C2061      N2063   1.157       .  T
C2062      N2064   1.157       .  T
C2065      C2066   1.405       .  A
C2065      C2070   1.421   1_565  A
C2066      C2067   1.403   1_565  A
C2066      H2071   1.085       .  S
C2067      C2068   1.419       .  A
C2067      C2074   1.445       .  S
C2068      C2069   1.401       .  A
C2069      C2070   1.401       .  A
C2069      H2072   1.085       .  S
C2070      C2073   1.444       .  S
C2073      N2075   1.157       .  T
C2074      N2076   1.157       .  T
C2077      C2078   1.408       .  A
C2077      C2082   1.410       .  A
C2078      C2079   1.406       .  A
C2078      H2083   1.085       .  S
C2079      C2080   1.416       .  A
C2079      C2086   1.443       .  S
C2080      C2081   1.411       .  A
C2081      C2082   1.400       .  A
C2081      H2084   1.084       .  S
C2082      C2085   1.445       .  S
C2085      N2087   1.157       .  T
C2086      N2088   1.157       .  T
C2089      C2090   1.401       .  A
C2089      C2094   1.413       .  A
C2090      C2091   1.399       .  A
C2090      H2095   1.085       .  S
C2091      C2092   1.414       .  A
C2091      C2098   1.446       .  S
C2092      C2093   1.402       .  A
C2093      C2094   1.402       .  A
C2093      H2096   1.085       .  S
C2094      C2097   1.444       .  S
C2097      N2099   1.157       .  T
C2098      N2100   1.158       .  T
C2101      C2102   1.404       .  A
C2101      C2106   1.420   1_556  A
C2102      C2103   1.405   1_556  A
C2102      H2107   1.085       .  S
C2103      C2104   1.421       .  A
C2103      C2110   1.444       .  S
C2104      C2105   1.406       .  A
C2105      C2106   1.406       .  A
C2105      H2108   1.085       .  S
C2106      C2109   1.444       .  S
C2109      N2111   1.157       .  T
C2110      N2112   1.157       .  T
C2113      C2114   1.403       .  A
C2113      C2118   1.418       .  A
C2114      C2115   1.404       .  A
C2114      H2119   1.085       .  S
C2115      C2116   1.420       .  A
C2115      C2122   1.444       .  S
C2116      C2117   1.404       .  A
C2117      C2118   1.399       .  A
C2117      H2120   1.085       .  S
C2118      C2121   1.445       .  S
C2121      N2123   1.157       .  T
C2122      N2124   1.157       .  T
C2125      C2126   1.409       .  A
C2125      C2130   1.410       .  A
C2126      C2127   1.404       .  A
C2126      H2131   1.085       .  S
C2127      C2128   1.409       .  A
C2127      C2134   1.443       .  S
C2128      C2129   1.407       .  A
C2129      C2130   1.398       .  A
C2129      H2132   1.085       .  S
C2130      C2133   1.445       .  S
C2133      N2135   1.157       .  T
C2134      N2136   1.157       .  T
C2137      C2138   1.411       .  A
C2137      C2142   1.410       .  A
C2138      C2139   1.402       .  A
C2138      H2143   1.085       .  S
C2139      C2140   1.406       .  A
C2139      C2146   1.443       .  S
C2140      C2141   1.407       .  A
C2141      C2142   1.396       .  A
C2141      H2144   1.085       .  S
C2142      C2145   1.445       .  S
C2145      N2147   1.157       .  T
C2146      N2148   1.157       .  T
C2149      C2150   1.409   1_655  A
C2149      C2154   1.414       .  A
C2150      C2151   1.400       .  A
C2150      H2155   1.084       .  S
C2151      C2152   1.411       .  A
C2151      C2158   1.444       .  S
C2152      C2153   1.407       .  A
C2153      C2154   1.401   1_455  A
C2153      H2156   1.085       .  S
C2154      C2157   1.444       .  S
C2157      N2159   1.157       .  T
C2158      N2160   1.157       .  T
C2161      C2162   1.404       .  A
C2161      C2166   1.408       .  A
C2162      C2163   1.400       .  A
C2162      H2167   1.085       .  S
C2163      C2164   1.413       .  A
C2163      C2170   1.444       .  S
C2164      C2165   1.410       .  A
C2165      C2166   1.399       .  A
C2165      H2168   1.085       .  S
C2166      C2169   1.445       .  S
C2169      N2171   1.157       .  T
C2170      N2172   1.157       .  T
C2173      C2174   1.411       .  A
C2173      C2178   1.417       .  A
C2174      C2175   1.403       .  A
C2174      H2179   1.084       .  S
C2175      C2176   1.411       .  A
C2175      C2182   1.444       .  S
C2176      C2177   1.407       .  A
C2177      C2178   1.407       .  A
C2177      H2180   1.085       .  S
C2178      C2181   1.443       .  S
C2181      N2183   1.157       .  T
C2182      N2184   1.157       .  T
C2185      C2186   1.400       .  A
C2185      C2190   1.415       .  A
C2186      C2187   1.403       .  A
C2186      H2191   1.085       .  S
C2187      C2188   1.418       .  A
C2187      C2194   1.444       .  S
C2188      C2189   1.399       .  A
C2189      C2190   1.394       .  A
C2189      H2192   1.085       .  S
C2190      C2193   1.446       .  S
C2193      N2195   1.157       .  T
C2194      N2196   1.157       .  T
C2197      C2198   1.403       .  A
C2197      C2202   1.410       .  A
C2198      C2199   1.400       .  A
C2198      H2203   1.085       .  S
C2199      C2200   1.412       .  A
C2199      C2206   1.445       .  S
C2200      C2201   1.406       .  A
C2201      C2202   1.405       .  A
C2201      H2204   1.085       .  S
C2202      C2205   1.444       .  S
C2205      N2207   1.157       .  T
C2206      N2208   1.157       .  T
C2209      C2210   1.397       .  A
C2209      C2214   1.414       .  A
C2210      C2211   1.398       .  A
C2210      H2215   1.085       .  S
C2211      C2212   1.419       .  A
C2211      C2218   1.445       .  S
C2212      C2213   1.402       .  A
C2213      C2214   1.399       .  A
C2213      H2216   1.085       .  S
C2214      C2217   1.445       .  S
C2217      N2219   1.157       .  T
C2218      N2220   1.157       .  T
C2221      C2222   1.409       .  A
C2221      C2226   1.407       .  A
C2222      C2223   1.400       .  A
C2222      H2227   1.085       .  S
C2223      C2224   1.411       .  A
C2223      C2230   1.444       .  S
C2224      C2225   1.412       .  A
C2225      C2226   1.397       .  A
C2225      H2228   1.084       .  S
C2226      C2229   1.445       .  S
C2229      N2231   1.157       .  T
C2230      N2232   1.157       .  T
C2233      C2234   1.405       .  A
C2233      C2238   1.408       .  A
C2234      C2235   1.404       .  A
C2234      H2239   1.085       .  S
C2235      C2236   1.412       .  A
C2235      C2242   1.444       .  S
C2236      C2237   1.405   1_565  A
C2237      C2238   1.397   1_545  A
C2237      H2240   1.085       .  S
C2238      C2241   1.445   1_565  S
C2241      N2243   1.157       .  T
C2242      N2244   1.157       .  T
C2245      C2246   1.403       .  A
C2245      C2250   1.421       .  A
C2246      C2247   1.396       .  A
C2246      H2251   1.085       .  S
C2247      C2248   1.414       .  A
C2247      C2254   1.446       .  S
C2248      C2249   1.397       .  A
C2249      C2250   1.395       .  A
C2249      H2252   1.085       .  S
C2250      C2253   1.445       .  S
C2253      N2255   1.157       .  T
C2254      N2256   1.157       .  T
C2257      C2258   1.401       .  A
C2257      C2262   1.404       .  A
C2258      C2259   1.398       .  A
C2258      H2263   1.086       .  S
C2259      C2260   1.417       .  A
C2259      C2266   1.444       .  S
C2260      C2261   1.414       .  A
C2261      C2262   1.404       .  A
C2261      H2264   1.084       .  S
C2262      C2265   1.444       .  S
C2265      N2267   1.157       .  T
C2266      N2268   1.157       .  T
C2269      C2270   1.411       .  A
C2269      C2274   1.412       .  A
C2270      C2271   1.400       .  A
C2270      H2275   1.084       .  S
C2271      C2272   1.409       .  A
C2271      C2278   1.444       .  S
C2272      C2273   1.409       .  A
C2273      C2274   1.398       .  A
C2273      H2276   1.085       .  S
C2274      C2277   1.445       .  S
C2277      N2279   1.157       .  T
C2278      N2280   1.157       .  T
C2281      C2282   1.407       .  A
C2281      C2286   1.407       .  A
C2282      C2283   1.401       .  A
C2282      H2287   1.085       .  S
C2283      C2284   1.412       .  A
C2283      C2290   1.444       .  S
C2284      C2285   1.412       .  A
C2285      C2286   1.403       .  A
C2285      H2288   1.084       .  S
C2286      C2289   1.444       .  S
C2289      N2291   1.157       .  T
C2290      N2292   1.157       .  T
C2293      C2294   1.411       .  A
C2293      C2298   1.411       .  A
C2294      C2295   1.395       .  A
C2294      H2299   1.084       .  S
C2295      C2296   1.408       .  A
C2295      C2302   1.445       .  S
C2296      C2297   1.410       .  A
C2297      C2298   1.401       .  A
C2297      H2300   1.085       .  S
C2298      C2301   1.444       .  S
C2301      N2303   1.157       .  T
C2302      N2304   1.157       .  T
C2305      C2306   1.396       .  A
C2305      C2310   1.415       .  A
C2306      C2307   1.393       .  A
C2306      H2311   1.085       .  S
C2307      C2308   1.419       .  A
C2307      C2314   1.446   1_565  S
C2308      C2309   1.401       .  A
C2309      C2310   1.404       .  A
C2309      H2312   1.084       .  S
C2310      C2313   1.444       .  S
C2313      N2315   1.157       .  T
C2314      N2316   1.157       .  T
C2317      C2318   1.399       .  A
C2317      C2322   1.413       .  A
C2318      C2319   1.402       .  A
C2318      H2323   1.085       .  S
C2319      C2320   1.420       .  A
C2319      C2326   1.444       .  S
C2320      C2321   1.404       .  A
C2321      C2322   1.398       .  A
C2321      H2324   1.085       .  S
C2322      C2325   1.445       .  S
C2325      N2327   1.157       .  T
C2326      N2328   1.157       .  T
C2329      C2330   1.410       .  A
C2329      C2334   1.415       .  A
C2330      C2331   1.399       .  A
C2330      H2335   1.085       .  S
C2331      C2332   1.405       .  A
C2331      C2338   1.444       .  S
C2332      C2333   1.405       .  A
C2333      C2334   1.407       .  A
C2333      H2336   1.085       .  S
C2334      C2337   1.443       .  S
C2337      N2339   1.157       .  T
C2338      N2340   1.157       .  T
C2341      C2342   1.399       .  A
C2341      C2346   1.419       .  A
C2342      C2343   1.394       .  A
C2342      H2347   1.085       .  S
C2343      C2344   1.414       .  A
C2343      C2350   1.445       .  S
C2344      C2345   1.400       .  A
C2345      C2346   1.403       .  A
C2345      H2348   1.085       .  S
C2346      C2349   1.444       .  S
C2349      N2351   1.157       .  T
C2350      N2352   1.157       .  T
C2353      C2354   1.411       .  A
C2353      C2358   1.408       .  A
C2354      C2355   1.393       .  A
C2354      H2359   1.085       .  S
C2355      C2356   1.407       .  A
C2355      C2362   1.445       .  S
C2356      C2357   1.412       .  A
C2357      C2358   1.398       .  A
C2357      H2360   1.084       .  S
C2358      C2361   1.444       .  S
C2361      N2363   1.157       .  T
C2362      N2364   1.157       .  T
C2365      C2366   1.404       .  A
C2365      C2370   1.423   1_655  A
C2366      C2367   1.402   1_545  A
C2366      H2371   1.085   1_545  S
C2367      C2368   1.416   1_565  A
C2367      C2374   1.445       .  S
C2368      C2369   1.401   1_655  A
C2369      C2370   1.406       .  A
C2369      H2372   1.085       .  S
C2370      C2373   1.445       .  S
C2373      N2375   1.158       .  T
C2374      N2376   1.157       .  T
C2377      C2378   1.407       .  A
C2377      C2382   1.408       .  A
C2378      C2379   1.397       .  A
C2378      H2383   1.085       .  S
C2379      C2380   1.413       .  A
C2379      C2386   1.444       .  S
C2380      C2381   1.411       .  A
C2381      C2382   1.399       .  A
C2381      H2384   1.084       .  S
C2382      C2385   1.444       .  S
C2385      N2387   1.157       .  T
C2386      N2388   1.157       .  T
C2389      C2390   1.397       .  A
C2389      C2394   1.415       .  A
C2390      C2391   1.396       .  A
C2390      H2395   1.085       .  S
C2391      C2392   1.420       .  A
C2391      C2398   1.446       .  S
C2392      C2393   1.400       .  A
C2393      C2394   1.401       .  A
C2393      H2396   1.084       .  S
C2394      C2397   1.444       .  S
C2397      N2399   1.157       .  T
C2398      N2400   1.158       .  T
C2401      C2402   1.409       .  A
C2401      C2406   1.410       .  A
C2402      C2403   1.398       .  A
C2402      H2407   1.085       .  S
C2403      C2404   1.410       .  A
C2403      C2410   1.444       .  S
C2404      C2405   1.411       .  A
C2405      C2406   1.399       .  A
C2405      H2408   1.084       .  S
C2406      C2409   1.444       .  S
C2409      N2411   1.157       .  T
C2410      N2412   1.157       .  T
C2413      C2414   1.396       .  A
C2413      C2418   1.411       .  A
C2414      C2415   1.397       .  A
C2414      H2419   1.086   1_556  S
C2415      C2416   1.421       .  A
C2415      C2422   1.445   1_556  S
C2416      C2417   1.406       .  A
C2417      C2418   1.403       .  A
C2417      H2420   1.084       .  S
C2418      C2421   1.444       .  S
C2421      N2423   1.157       .  T
C2422      N2424   1.157   1_565  T
C2425      C2426   1.395       .  A
C2425      C2430   1.416       .  A
C2426      C2427   1.395       .  A
C2426      H2431   1.085       .  S
C2427      C2428   1.422       .  A
C2427      C2434   1.445   1_565  S
C2428      C2429   1.402       .  A
C2429      C2430   1.399       .  A
C2429      H2432   1.085       .  S
C2430      C2433   1.445       .  S
C2433      N2435   1.157       .  T
C2434      N2436   1.157       .  T
C2437      C2438   1.403       .  A
C2437      C2442   1.420       .  A
C2438      C2439   1.401   1_545  A
C2438      H2443   1.085       .  S
C2439      C2440   1.421   1_565  A
C2439      C2446   1.445       .  S
C2440      C2441   1.404       .  A
C2441      C2442   1.406       .  A
C2441      H2444   1.085       .  S
C2442      C2445   1.444       .  S
C2445      N2447   1.157       .  T
C2446      N2448   1.158       .  T
C2449      C2450   1.402       .  A
C2449      C2454   1.411       .  A
C2450      C2451   1.398       .  A
C2450      H2455   1.085       .  S
C2451      C2452   1.413       .  A
C2451      C2458   1.445       .  S
C2452      C2453   1.407       .  A
C2453      C2454   1.407       .  A
C2453      H2456   1.085       .  S
C2454      C2457   1.443       .  S
C2457      N2459   1.157       .  T
C2458      N2460   1.157   1_455  T
C2461      C2462   1.403       .  A
C2461      C2466   1.421       .  A
C2462      C2463   1.397       .  A
C2462      H2467   1.085       .  S
C2463      C2464   1.413       .  A
C2463      C2470   1.445       .  S
C2464      C2465   1.398       .  A
C2465      C2466   1.399       .  A
C2465      H2468   1.085       .  S
C2466      C2469   1.445       .  S
C2469      N2471   1.157       .  T
C2470      N2472   1.157       .  T
C2473      C2474   1.409       .  A
C2473      C2478   1.410       .  A
C2474      C2475   1.403       .  A
C2474      H2479   1.085       .  S
C2475      C2476   1.408       .  A
C2475      C2482   1.443       .  S
C2476      C2477   1.407       .  A
C2477      C2478   1.397       .  A
C2477      H2480   1.085       .  S
C2478      C2481   1.445   1_565  S
C2481      N2483   1.158       .  T
C2482      N2484   1.157       .  T
C2485      C2486   1.405       .  A
C2485      C2490   1.403       .  A
C2486      C2487   1.398       .  A
C2486      H2491   1.085       .  S
C2487      C2488   1.411       .  A
C2487      C2494   1.444       .  S
C2488      C2489   1.410       .  A
C2489      C2490   1.392       .  A
C2489      H2492   1.085       .  S
C2490      C2493   1.445       .  S
C2493      N2495   1.157       .  T
C2494      N2496   1.157       .  T
C2497      C2498   1.406       .  A
C2497      C2502   1.406       .  A
C2498      C2499   1.406       .  A
C2498      H2503   1.085       .  S
C2499      C2500   1.412       .  A
C2499      C2506   1.443       .  S
C2500      C2501   1.406       .  A
C2501      C2502   1.393       .  A
C2501      H2504   1.085       .  S
C2502      C2505   1.446       .  S
C2505      N2507   1.157   1_655  T
C2506      N2508   1.157       .  T
C2509      C2510   1.394       .  A
C2509      C2514   1.409       .  A
C2510      C2511   1.393       .  A
C2510      H2515   1.086       .  S
C2511      C2512   1.424       .  A
C2511      C2518   1.445       .  S
C2512      C2513   1.409       .  A
C2513      C2514   1.405       .  A
C2513      H2516   1.084       .  S
C2514      C2517   1.445       .  S
C2517      N2519   1.158       .  T
C2518      N2520   1.157   1_554  T
C2521      C2522   1.403       .  A
C2521      C2526   1.420       .  A
C2522      C2523   1.401       .  A
C2522      H2527   1.085       .  S
C2523      C2524   1.414       .  A
C2523      C2530   1.445       .  S
C2524      C2525   1.397       .  A
C2525      C2526   1.398       .  A
C2525      H2528   1.085       .  S
C2526      C2529   1.445       .  S
C2529      N2531   1.157   1_556  T
C2530      N2532   1.157       .  T
C2533      C2534   1.409   1_554  A
C2533      C2538   1.412       .  A
C2534      C2535   1.399       .  A
C2534      H2539   1.085       .  S
C2535      C2536   1.412   1_556  A
C2535      C2542   1.445       .  S
C2536      C2537   1.410       .  A
C2537      C2538   1.406       .  A
C2537      H2540   1.084       .  S
C2538      C2541   1.443       .  S
C2541      N2543   1.157       .  T
C2542      N2544   1.157       .  T
C2545      C2546   1.409       .  A
C2545      C2550   1.410       .  A
C2546      C2547   1.400       .  A
C2546      H2551   1.084       .  S
C2547      C2548   1.410       .  A
C2547      C2554   1.444       .  S
C2548      C2549   1.409       .  A
C2549      C2550   1.394       .  A
C2549      H2552   1.085       .  S
C2550      C2553   1.445       .  S
C2553      N2555   1.157       .  T
C2554      N2556   1.157       .  T
C2557      C2558   1.410       .  A
C2557      C2562   1.413       .  A
C2558      C2559   1.403       .  A
C2558      H2563   1.085       .  S
C2559      C2560   1.408       .  A
C2559      C2566   1.443       .  S
C2560      C2561   1.408       .  A
C2561      C2562   1.401       .  A
C2561      H2564   1.085       .  S
C2562      C2565   1.444       .  S
C2565      N2567   1.157       .  T
C2566      N2568   1.157       .  T
C2569      C2570   1.402       .  A
C2569      C2574   1.418       .  A
C2570      C2571   1.399       .  A
C2570      H2575   1.085       .  S
C2571      C2572   1.413       .  A
C2571      C2578   1.445       .  S
C2572      C2573   1.399       .  A
C2573      C2574   1.401       .  A
C2573      H2576   1.085       .  S
C2574      C2577   1.445       .  S
C2577      N2579   1.157       .  T
C2578      N2580   1.157       .  T
C2581      C2582   1.400       .  A
C2581      C2586   1.411       .  A
C2582      C2583   1.397       .  A
C2582      H2587   1.085       .  S
C2583      C2584   1.415       .  A
C2583      C2590   1.446       .  S
C2584      C2585   1.402       .  A
C2585      C2586   1.400       .  A
C2585      H2588   1.085       .  S
C2586      C2589   1.444       .  S
C2589      N2591   1.157       .  T
C2590      N2592   1.157       .  T
C2593      C2594   1.408       .  A
C2593      C2598   1.409       .  A
C2594      C2595   1.399       .  A
C2594      H2599   1.085       .  S
C2595      C2596   1.412       .  A
C2595      C2602   1.444       .  S
C2596      C2597   1.409       .  A
C2597      C2598   1.394       .  A
C2597      H2600   1.084       .  S
C2598      C2601   1.445       .  S
C2601      N2603   1.157       .  T
C2602      N2604   1.157       .  T
C2605      C2606   1.404       .  A
C2605      C2610   1.410       .  A
C2606      C2607   1.395       .  A
C2606      H2611   1.085   1_565  S
C2607      C2608   1.408       .  A
C2607      C2614   1.445   1_565  S
C2608      C2609   1.405       .  A
C2609      C2610   1.403       .  A
C2609      H2612   1.085       .  S
C2610      C2613   1.443       .  S
C2613      N2615   1.157       .  T
C2614      N2616   1.157       .  T
C2617      C2618   1.406       .  A
C2617      C2622   1.406       .  A
C2618      C2619   1.398       .  A
C2618      H2623   1.085       .  S
C2619      C2620   1.413       .  A
C2619      C2626   1.444       .  S
C2620      C2621   1.411       .  A
C2621      C2622   1.397       .  A
C2621      H2624   1.084       .  S
C2622      C2625   1.445       .  S
C2625      N2627   1.157       .  T
C2626      N2628   1.157       .  T
C2629      C2630   1.404       .  A
C2629      C2634   1.421       .  A
C2630      C2631   1.403   1_554  A
C2630      H2635   1.085   1_554  S
C2631      C2632   1.418   1_556  A
C2631      C2638   1.445       .  S
C2632      C2633   1.401       .  A
C2633      C2634   1.399       .  A
C2633      H2636   1.085       .  S
C2634      C2637   1.445       .  S
C2637      N2639   1.157       .  T
C2638      N2640   1.157       .  T
C2641      C2642   1.404       .  A
C2641      C2646   1.425       .  A
C2642      C2643   1.399       .  A
C2642      H2647   1.084       .  S
C2643      C2644   1.413       .  A
C2643      C2650   1.445       .  S
C2644      C2645   1.396       .  A
C2645      C2646   1.402       .  A
C2645      H2648   1.085       .  S
C2646      C2649   1.445       .  S
C2649      N2651   1.157       .  T
C2650      N2652   1.157       .  T
C2653      C2654   1.410       .  A
C2653      C2658   1.409       .  A
C2654      C2655   1.398       .  A
C2654      H2659   1.085       .  S
C2655      C2656   1.410       .  A
C2655      C2662   1.444       .  S
C2656      C2657   1.411       .  A
C2657      C2658   1.399       .  A
C2657      H2660   1.084       .  S
C2658      C2661   1.444       .  S
C2661      N2663   1.157       .  T
C2662      N2664   1.157       .  T
C2665      C2666   1.410       .  A
C2665      C2670   1.414       .  A
C2666      C2667   1.397       .  A
C2666      H2671   1.084       .  S
C2667      C2668   1.408       .  A
C2667      C2674   1.445       .  S
C2668      C2669   1.407       .  A
C2669      C2670   1.406       .  A
C2669      H2672   1.085       .  S
C2670      C2673   1.443       .  S
C2673      N2675   1.157       .  T
C2674      N2676   1.157       .  T
C2677      C2678   1.402       .  A
C2677      C2682   1.410       .  A
C2678      C2679   1.401       .  A
C2678      H2683   1.085       .  S
C2679      C2680   1.411       .  A
C2679      C2686   1.444       .  S
C2680      C2681   1.402       .  A
C2681      C2682   1.396       .  A
C2681      H2684   1.085       .  S
C2682      C2685   1.446       .  S
C2685      N2687   1.157       .  T
C2686      N2688   1.157       .  T
C2689      C2690   1.399       .  A
C2689      C2694   1.415       .  A
C2690      C2691   1.401       .  A
C2690      H2695   1.085       .  S
C2691      C2692   1.422       .  A
C2691      C2698   1.444       .  S
C2692      C2693   1.404       .  A
C2693      C2694   1.398       .  A
C2693      H2696   1.085       .  S
C2694      C2697   1.445       .  S
C2697      N2699   1.157       .  T
C2698      N2700   1.157       .  T
C2701      C2702   1.411       .  A
C2701      C2706   1.414       .  A
C2702      C2703   1.403       .  A
C2702      H2707   1.084       .  S
C2703      C2704   1.412       .  A
C2703      C2710   1.444       .  S
C2704      C2705   1.410       .  A
C2705      C2706   1.406       .  A
C2705      H2708   1.084       .  S
C2706      C2709   1.444       .  S
C2709      N2711   1.157       .  T
C2710      N2712   1.157       .  T
C2713      C2714   1.409       .  A
C2713      C2718   1.409       .  A
C2714      C2715   1.400       .  A
C2714      H2719   1.085       .  S
C2715      C2716   1.410       .  A
C2715      C2722   1.444       .  S
C2716      C2717   1.409       .  A
C2717      C2718   1.392       .  A
C2717      H2720   1.085       .  S
C2718      C2721   1.445       .  S
C2721      N2723   1.157       .  T
C2722      N2724   1.157       .  T
C2725      C2726   1.405       .  A
C2725      C2730   1.418       .  A
C2726      C2727   1.405   1_545  A
C2726      H2731   1.085   1_545  S
C2727      C2728   1.419   1_565  A
C2727      C2734   1.444       .  S
C2728      C2729   1.405       .  A
C2729      C2730   1.403       .  A
C2729      H2732   1.085       .  S
C2730      C2733   1.444       .  S
C2733      N2735   1.157       .  T
C2734      N2736   1.157       .  T
C2737      C2738   1.404       .  A
C2737      C2742   1.413       .  A
C2738      C2739   1.405       .  A
C2738      H2743   1.085       .  S
C2739      C2740   1.414       .  A
C2739      C2746   1.444       .  S
C2740      C2741   1.400       .  A
C2741      C2742   1.396       .  A
C2741      H2744   1.085       .  S
C2742      C2745   1.445       .  S
C2745      N2747   1.157   1_545  T
C2746      N2748   1.157       .  T
C2749      C2750   1.404       .  A
C2749      C2754   1.422       .  A
C2750      C2751   1.402       .  A
C2750      H2755   1.084       .  S
C2751      C2752   1.416       .  A
C2751      C2758   1.444       .  S
C2752      C2753   1.397       .  A
C2753      C2754   1.397       .  A
C2753      H2756   1.085       .  S
C2754      C2757   1.445       .  S
C2757      N2759   1.157       .  T
C2758      N2760   1.157       .  T
C2761      C2762   1.402       .  A
C2761      C2766   1.420       .  A
C2762      C2763   1.402       .  A
C2762      H2767   1.085       .  S
C2763      C2764   1.422       .  A
C2763      C2770   1.445       .  S
C2764      C2765   1.404       .  A
C2765      C2766   1.403       .  A
C2765      H2768   1.085       .  S
C2766      C2769   1.445       .  S
C2769      N2771   1.157       .  T
C2770      N2772   1.158       .  T
C2773      C2774   1.413       .  A
C2773      C2778   1.411       .  A
C2774      C2775   1.398       .  A
C2774      H2779   1.084       .  S
C2775      C2776   1.406       .  A
C2775      C2782   1.444       .  S
C2776      C2777   1.407       .  A
C2777      C2778   1.395       .  A
C2777      H2780   1.085       .  S
C2778      C2781   1.444       .  S
C2781      N2783   1.157       .  T
C2782      N2784   1.157       .  T
C2785      C2786   1.403       .  A
C2785      C2790   1.419       .  A
C2786      C2787   1.404       .  A
C2786      H2791   1.084       .  S
C2787      C2788   1.416       .  A
C2787      C2794   1.444       .  S
C2788      C2789   1.398       .  A
C2789      C2790   1.395       .  A
C2789      H2792   1.085       .  S
C2790      C2793   1.446       .  S
C2793      N2795   1.157       .  T
C2794      N2796   1.157       .  T
C2797      C2798   1.398       .  A
C2797      C2802   1.420       .  A
C2798      C2799   1.396       .  A
C2798      H2803   1.085       .  S
C2799      C2800   1.418       .  A
C2799      C2806   1.446       .  S
C2800      C2801   1.401       .  A
C2801      C2802   1.405       .  A
C2801      H2804   1.085       .  S
C2802      C2805   1.444       .  S
C2805      N2807   1.157       .  T
C2806      N2808   1.157       .  T
C2809      C2810   1.398       .  A
C2809      C2814   1.412       .  A
C2810      C2811   1.400       .  A
C2810      H2815   1.085       .  S
C2811      C2812   1.419       .  A
C2811      C2818   1.444       .  S
C2812      C2813   1.404       .  A
C2813      C2814   1.397       .  A
C2813      H2816   1.085       .  S
C2814      C2817   1.446       .  S
C2817      N2819   1.157       .  T
C2818      N2820   1.157       .  T
C2821      C2822   1.409   1_545  A
C2821      C2826   1.412       .  A
C2822      C2823   1.405   1_565  A
C2822      H2827   1.085       .  S
C2823      C2824   1.414       .  A
C2823      C2830   1.444   1_545  S
C2824      C2825   1.409       .  A
C2825      C2826   1.399       .  A
C2825      H2828   1.085       .  S
C2826      C2829   1.444       .  S
C2829      N2831   1.157       .  T
C2830      N2832   1.157       .  T
C2833      C2834   1.403   1_565  A
C2833      C2838   1.414       .  A
C2834      C2835   1.398       .  A
C2834      H2839   1.085       .  S
C2835      C2836   1.411   1_545  A
C2835      C2842   1.445       .  S
C2836      C2837   1.401       .  A
C2837      C2838   1.403       .  A
C2837      H2840   1.085       .  S
C2838      C2841   1.444       .  S
C2841      N2843   1.157       .  T
C2842      N2844   1.157       .  T
C2845      C2846   1.401       .  A
C2845      C2850   1.420       .  A
C2846      C2847   1.396       .  A
C2846      H2851   1.085       .  S
C2847      C2848   1.413       .  A
C2847      C2854   1.446       .  S
C2848      C2849   1.397       .  A
C2849      C2850   1.398       .  A
C2849      H2852   1.085       .  S
C2850      C2853   1.445       .  S
C2853      N2855   1.157       .  T
C2854      N2856   1.157       .  T
C2857      C2858   1.400       .  A
C2857      C2862   1.417       .  A
C2858      C2859   1.403       .  A
C2858      H2863   1.085       .  S
C2859      C2860   1.418       .  A
C2859      C2866   1.444       .  S
C2860      C2861   1.400       .  A
C2861      C2862   1.396       .  A
C2861      H2864   1.085       .  S
C2862      C2865   1.445       .  S
C2865      N2867   1.157       .  T
C2866      N2868   1.157       .  T
C2869      C2870   1.401       .  A
C2869      C2874   1.416       .  A
C2870      C2871   1.406       .  A
C2870      H2875   1.085       .  S
C2871      C2872   1.419       .  A
C2871      C2878   1.444       .  S
C2872      C2873   1.401       .  A
C2873      C2874   1.399       .  A
C2873      H2876   1.083       .  S
C2874      C2877   1.445       .  S
C2877      N2879   1.157   1_565  T
C2878      N2880   1.157       .  T
C2881      C2882   1.411       .  A
C2881      C2886   1.413       .  A
C2882      C2883   1.396       .  A
C2882      H2887   1.084       .  S
C2883      C2884   1.405       .  A
C2883      C2890   1.444       .  S
C2884      C2885   1.406       .  A
C2885      C2886   1.399       .  A
C2885      H2888   1.084       .  S
C2886      C2889   1.444       .  S
C2889      N2891   1.157       .  T
C2890      N2892   1.157       .  T
C2893      C2894   1.397       .  A
C2893      C2898   1.414       .  A
C2894      C2895   1.397       .  A
C2894      H2899   1.085       .  S
C2895      C2896   1.420       .  A
C2895      C2902   1.445       .  S
C2896      C2897   1.402       .  A
C2897      C2898   1.396       .  A
C2897      H2900   1.085       .  S
C2898      C2901   1.445       .  S
C2901      N2903   1.157       .  T
C2902      N2904   1.157       .  T
C2905      C2906   1.401       .  A
C2905      C2910   1.411       .  A
C2906      C2907   1.398       .  A
C2906      H2911   1.085       .  S
C2907      C2908   1.413       .  A
C2907      C2914   1.445       .  S
C2908      C2909   1.404       .  A
C2909      C2910   1.403       .  A
C2909      H2912   1.085       .  S
C2910      C2913   1.444       .  S
C2913      N2915   1.157       .  T
C2914      N2916   1.157       .  T
C2917      C2918   1.411       .  A
C2917      C2922   1.412       .  A
C2918      C2919   1.394       .  A
C2918      H2923   1.084       .  S
C2919      C2920   1.405       .  A
C2919      C2926   1.443       .  S
C2920      C2921   1.408       .  A
C2921      C2922   1.401       .  A
C2921      H2924   1.085       .  S
C2922      C2925   1.444       .  S
C2925      N2927   1.157       .  T
C2926      N2928   1.157       .  T
C2929      C2930   1.410       .  A
C2929      C2934   1.413       .  A
C2930      C2931   1.406       .  A
C2930      H2935   1.084       .  S
C2931      C2932   1.413       .  A
C2931      C2938   1.444       .  S
C2932      C2933   1.409       .  A
C2933      C2934   1.400       .  A
C2933      H2936   1.085       .  S
C2934      C2937   1.444       .  S
C2937      N2939   1.157       .  T
C2938      N2940   1.157       .  T
C2941      C2942   1.411       .  A
C2941      C2946   1.408       .  A
C2942      C2943   1.406       .  A
C2942      H2947   1.084       .  S
C2943      C2944   1.408       .  A
C2943      C2950   1.443       .  S
C2944      C2945   1.408       .  A
C2945      C2946   1.395       .  A
C2945      H2948   1.085       .  S
C2946      C2949   1.445       .  S
C2949      N2951   1.157       .  T
C2950      N2952   1.157       .  T
C2953      C2954   1.400       .  A
C2953      C2958   1.420       .  A
C2954      C2955   1.398       .  A
C2954      H2959   1.085       .  S
C2955      C2956   1.422       .  A
C2955      C2962   1.445       .  S
C2956      C2957   1.402       .  A
C2957      C2958   1.399       .  A
C2957      H2960   1.085       .  S
C2958      C2961   1.445       .  S
C2961      N2963   1.157       .  T
C2962      N2964   1.157       .  T
C2965      C2966   1.401       .  A
C2965      C2970   1.419       .  A
C2966      C2967   1.395       .  A
C2966      H2971   1.085       .  S
C2967      C2968   1.415       .  A
C2967      C2974   1.446       .  S
C2968      C2969   1.401       .  A
C2969      C2970   1.405       .  A
C2969      H2972   1.085       .  S
C2970      C2973   1.444       .  S
C2973      N2975   1.157       .  T
C2974      N2976   1.157       .  T
C2977      C2978   1.398       .  A
C2977      C2982   1.418       .  A
C2978      C2979   1.398       .  A
C2978      H2983   1.085       .  S
C2979      C2980   1.424       .  A
C2979      C2986   1.445       .  S
C2980      C2981   1.402       .  A
C2981      C2982   1.400       .  A
C2981      H2984   1.085       .  S
C2982      C2985   1.445       .  S
C2985      N2987   1.157       .  T
C2986      N2988   1.158       .  T
C2989      C2990   1.404       .  A
C2989      C2994   1.405       .  A
C2990      C2991   1.406       .  A
C2990      H2995   1.085       .  S
C2991      C2992   1.416       .  A
C2991      C2998   1.444       .  S
C2992      C2993   1.411       .  A
C2993      C2994   1.403       .  A
C2993      H2996   1.084       .  S
C2994      C2997   1.444       .  S
C2997      N2999   1.157       .  T
C2998      N3000   1.157       .  T
C3001      C3002   1.405       .  A
C3001      C3006   1.404       .  A
C3002      C3003   1.394       .  A
C3002      H3007   1.085       .  S
C3003      C3004   1.413       .  A
C3003      C3010   1.445       .  S
C3004      C3005   1.411       .  A
C3005      C3006   1.399       .  A
C3005      H3008   1.084       .  S
C3006      C3009   1.444       .  S
C3009      N3011   1.157       .  T
C3010      N3012   1.158       .  T
C3013      C3014   1.405       .  A
C3013      C3018   1.423       .  A
C3014      C3015   1.405       .  A
C3014      H3019   1.085       .  S
C3015      C3016   1.420       .  A
C3015      C3022   1.444       .  S
C3016      C3017   1.403       .  A
C3017      C3018   1.406       .  A
C3017      H3020   1.085       .  S
C3018      C3021   1.444       .  S
C3021      N3023   1.157       .  T
C3022      N3024   1.157       .  T
C3025      C3026   1.398       .  A
C3025      C3030   1.414       .  A
C3026      C3027   1.404       .  A
C3026      H3031   1.085       .  S
C3027      C3028   1.422       .  A
C3027      C3034   1.444       .  S
C3028      C3029   1.401       .  A
C3029      C3030   1.396       .  A
C3029      H3032   1.085       .  S
C3030      C3033   1.446       .  S
C3033      N3035   1.157       .  T
C3034      N3036   1.157       .  T
C3037      C3038   1.413       .  A
C3037      C3042   1.416       .  A
C3038      C3039   1.402       .  A
C3038      H3043   1.084       .  S
C3039      C3040   1.403       .  A
C3039      C3046   1.444       .  S
C3040      C3041   1.403       .  A
C3041      C3042   1.402       .  A
C3041      H3044   1.086       .  S
C3042      C3045   1.444       .  S
C3045      N3047   1.157       .  T
C3046      N3048   1.157       .  T
C3049      C3050   1.405       .  A
C3049      C3054   1.407       .  A
C3050      C3051   1.401       .  A
C3050      H3055   1.085       .  S
C3051      C3052   1.414       .  A
C3051      C3058   1.443       .  S
C3052      C3053   1.410       .  A
C3053      C3054   1.396       .  A
C3053      H3056   1.084       .  S
C3054      C3057   1.445       .  S
C3057      N3059   1.157       .  T
C3058      N3060   1.157       .  T
C3061      C3062   1.397       .  A
C3061      C3066   1.411       .  A
C3062      C3063   1.399       .  A
C3062      H3067   1.085       .  S
C3063      C3064   1.420       .  A
C3063      C3070   1.445       .  S
C3064      C3065   1.402       .  A
C3065      C3066   1.398       .  A
C3065      H3068   1.085       .  S
C3066      C3069   1.445       .  S
C3069      N3071   1.157       .  T
C3070      N3072   1.157       .  T
C3073      C3074   1.408       .  A
C3073      C3078   1.409       .  A
C3074      C3075   1.400       .  A
C3074      H3079   1.085       .  S
C3075      C3076   1.414       .  A
C3075      C3082   1.444       .  S
C3076      C3077   1.411       .  A
C3077      C3078   1.401       .  A
C3077      H3080   1.084       .  S
C3078      C3081   1.444       .  S
C3081      N3083   1.157       .  T
C3082      N3084   1.157       .  T
C3085      C3086   1.401       .  A
C3085      C3090   1.415       .  A
C3086      C3087   1.400       .  A
C3086      H3091   1.085       .  S
C3087      C3088   1.412       .  A
C3087      C3094   1.444       .  S
C3088      C3089   1.399       .  A
C3089      C3090   1.397       .  A
C3089      H3092   1.085       .  S
C3090      C3093   1.446       .  S
C3093      N3095   1.157   1_554  T
C3094      N3096   1.157       .  T
C3097      C3098   1.398       .  A
C3097      C3102   1.415       .  A
C3098      C3099   1.398       .  A
C3098      H3103   1.084       .  S
C3099      C3100   1.422       .  A
C3099      C3106   1.445       .  S
C3100      C3101   1.403       .  A
C3101      C3102   1.397       .  A
C3101      H3104   1.084       .  S
C3102      C3105   1.445       .  S
C3105      N3107   1.157       .  T
C3106      N3108   1.157       .  T
C3109      C3110   1.405       .  A
C3109      C3114   1.422       .  A
C3110      C3111   1.405       .  A
C3110      H3115   1.085       .  S
C3111      C3112   1.420       .  A
C3111      C3118   1.445       .  S
C3112      C3113   1.404       .  A
C3113      C3114   1.405       .  A
C3113      H3116   1.085       .  S
C3114      C3117   1.444       .  S
C3117      N3119   1.157       .  T
C3118      N3120   1.157       .  T
C3121      C3122   1.409       .  A
C3121      C3126   1.411       .  A
C3122      C3123   1.396       .  A
C3122      H3127   1.085       .  S
C3123      C3124   1.408       .  A
C3123      C3130   1.446       .  S
C3124      C3125   1.408       .  A
C3125      C3126   1.405       .  A
C3125      H3128   1.085       .  S
C3126      C3129   1.443       .  S
C3129      N3131   1.157       .  T
C3130      N3132   1.157       .  T
C3133      C3134   1.405       .  A
C3133      C3138   1.408       .  A
C3134      C3135   1.396       .  A
C3134      H3139   1.085       .  S
C3135      C3136   1.415       .  A
C3135      C3142   1.445       .  S
C3136      C3137   1.411       .  A
C3137      C3138   1.402       .  A
C3137      H3140   1.084       .  S
C3138      C3141   1.444       .  S
C3141      N3143   1.157       .  T
C3142      N3144   1.157       .  T
C3145      C3146   1.404       .  A
C3145      C3150   1.421       .  A
C3146      C3147   1.405       .  A
C3146      H3151   1.085       .  S
C3147      C3148   1.420       .  A
C3147      C3154   1.444       .  S
C3148      C3149   1.402       .  A
C3149      C3150   1.400       .  A
C3149      H3152   1.085       .  S
C3150      C3153   1.445       .  S
C3153      N3155   1.157       .  T
C3154      N3156   1.157       .  T
C3157      C3158   1.407       .  A
C3157      C3162   1.408       .  A
C3158      C3159   1.399       .  A
C3158      H3163   1.085       .  S
C3159      C3160   1.411       .  A
C3159      C3166   1.444       .  S
C3160      C3161   1.411       .  A
C3161      C3162   1.404       .  A
C3161      H3164   1.085       .  S
C3162      C3165   1.443       .  S
C3165      N3167   1.157       .  T
C3166      N3168   1.157       .  T
C3169      C3170   1.402       .  A
C3169      C3174   1.417       .  A
C3170      C3171   1.394       .  A
C3170      H3175   1.085       .  S
C3171      C3172   1.410       .  A
C3171      C3178   1.446       .  S
C3172      C3173   1.397       .  A
C3173      C3174   1.397       .  A
C3173      H3176   1.085       .  S
C3174      C3177   1.445       .  S
C3177      N3179   1.157       .  T
C3178      N3180   1.157       .  T
C3181      C3182   1.399       .  A
C3181      C3186   1.413       .  A
C3182      C3183   1.395       .  A
C3182      H3187   1.085       .  S
C3183      C3184   1.414       .  A
C3183      C3190   1.446   1_556  S
C3184      C3185   1.404       .  A
C3185      C3186   1.404       .  A
C3185      H3188   1.085       .  S
C3186      C3189   1.444       .  S
C3189      N3191   1.157       .  T
C3190      N3192   1.157       .  T
C3193      C3194   1.410       .  A
C3193      C3198   1.409       .  A
C3194      C3195   1.396       .  A
C3194      H3199   1.085       .  S
C3195      C3196   1.409       .  A
C3195      C3202   1.445       .  S
C3196      C3197   1.410       .  A
C3197      C3198   1.399       .  A
C3197      H3200   1.085       .  S
C3198      C3201   1.444       .  S
C3201      N3203   1.157       .  T
C3202      N3204   1.157       .  T
C3205      C3206   1.405       .  A
C3205      C3210   1.421       .  A
C3206      C3207   1.402       .  A
C3206      H3211   1.085       .  S
C3207      C3208   1.418       .  A
C3207      C3214   1.445       .  S
C3208      C3209   1.403       .  A
C3209      C3210   1.403       .  A
C3209      H3212   1.085       .  S
C3210      C3213   1.445       .  S
C3213      N3215   1.158       .  T
C3214      N3216   1.157       .  T
C3217      C3218   1.401       .  A
C3217      C3222   1.418       .  A
C3218      C3219   1.403       .  A
C3218      H3223   1.084       .  S
C3219      C3220   1.416       .  A
C3219      C3226   1.444       .  S
C3220      C3221   1.399       .  A
C3221      C3222   1.395       .  A
C3221      H3224   1.085       .  S
C3222      C3225   1.446       .  S
C3225      N3227   1.157       .  T
C3226      N3228   1.157       .  T
C3229      C3230   1.400       .  A
C3229      C3234   1.422       .  A
C3230      C3231   1.395       .  A
C3230      H3235   1.085       .  S
C3231      C3232   1.414       .  A
C3231      C3238   1.445       .  S
C3232      C3233   1.399       .  A
C3233      C3234   1.405       .  A
C3233      H3236   1.085       .  S
C3234      C3237   1.444       .  S
C3237      N3239   1.157       .  T
C3238      N3240   1.157   1_556  T
C3241      C3242   1.398       .  A
C3241      C3246   1.414       .  A
C3242      C3243   1.397       .  A
C3242      H3247   1.085       .  S
C3243      C3244   1.422       .  A
C3243      C3250   1.445       .  S
C3244      C3245   1.404       .  A
C3245      C3246   1.400       .  A
C3245      H3248   1.084       .  S
C3246      C3249   1.445       .  S
C3249      N3251   1.157       .  T
C3250      N3252   1.157       .  T
C3253      C3254   1.410       .  A
C3253      C3258   1.413   1_655  A
C3254      C3255   1.404       .  A
C3254      H3259   1.084       .  S
C3255      C3256   1.412   1_655  A
C3255      C3262   1.444       .  S
C3256      C3257   1.409       .  A
C3257      C3258   1.402       .  A
C3257      H3260   1.084       .  S
C3258      C3261   1.444       .  S
C3261      N3263   1.157       .  T
C3262      N3264   1.157       .  T
C3265      C3266   1.410       .  A
C3265      C3270   1.413       .  A
C3266      C3267   1.396       .  A
C3266      H3271   1.084       .  S
C3267      C3268   1.406       .  A
C3267      C3274   1.445       .  S
C3268      C3269   1.405       .  A
C3269      C3270   1.396       .  A
C3269      H3272   1.085       .  S
C3270      C3273   1.444       .  S
C3273      N3275   1.157       .  T
C3274      N3276   1.157       .  T
C3277      C3278   1.399       .  A
C3277      C3282   1.417       .  A
C3278      C3279   1.403       .  A
C3278      H3283   1.085       .  S
C3279      C3280   1.419       .  A
C3279      C3286   1.444       .  S
C3280      C3281   1.400       .  A
C3281      C3282   1.396       .  A
C3281      H3284   1.085       .  S
C3282      C3285   1.446       .  S
C3285      N3287   1.157       .  T
C3286      N3288   1.157       .  T
C3289      C3290   1.407       .  A
C3289      C3294   1.407       .  A
C3290      C3291   1.399       .  A
C3290      H3295   1.085       .  S
C3291      C3292   1.413       .  A
C3291      C3298   1.444       .  S
C3292      C3293   1.411       .  A
C3293      C3294   1.396       .  A
C3293      H3296   1.084       .  S
C3294      C3297   1.445       .  S
C3297      N3299   1.157       .  T
C3298      N3300   1.157       .  T
C3301      C3302   1.406       .  A
C3301      C3306   1.422       .  A
C3302      C3303   1.406       .  A
C3302      H3307   1.084       .  S
C3303      C3304   1.419       .  A
C3303      C3310   1.445       .  S
C3304      C3305   1.403       .  A
C3305      C3306   1.403       .  A
C3305      H3308   1.085       .  S
C3306      C3309   1.444       .  S
C3309      N3311   1.157       .  T
C3310      N3312   1.158       .  T
C3313      C3314   1.407       .  A
C3313      C3318   1.410       .  A
C3314      C3315   1.403       .  A
C3314      H3319   1.085       .  S
C3315      C3316   1.407       .  A
C3315      C3322   1.443       .  S
C3316      C3317   1.403       .  A
C3317      C3318   1.397       .  A
C3317      H3320   1.086       .  S
C3318      C3321   1.445       .  S
C3321      N3323   1.157       .  T
C3322      N3324   1.157       .  T
C3325      C3326   1.396       .  A
C3325      C3330   1.414       .  A
C3326      C3327   1.397       .  A
C3326      H3331   1.085       .  S
C3327      C3328   1.422       .  A
C3327      C3334   1.445       .  S
C3328      C3329   1.403       .  A
C3329      C3330   1.400       .  A
C3329      H3332   1.084       .  S
C3330      C3333   1.445       .  S
C3333      N3335   1.157       .  T
C3334      N3336   1.157       .  T
C3337      C3338   1.404       .  A
C3337      C3342   1.409       .  A
C3338      C3339   1.402       .  A
C3338      H3343   1.085       .  S
C3339      C3340   1.411       .  A
C3339      C3346   1.444       .  S
C3340      C3341   1.405       .  A
C3341      C3342   1.399       .  A
C3341      H3344   1.085       .  S
C3342      C3345   1.445       .  S
C3345      N3347   1.157       .  T
C3346      N3348   1.157       .  T
C3349      C3350   1.397       .  A
C3349      C3354   1.417       .  A
C3350      C3351   1.399       .  A
C3350      H3355   1.085       .  S
C3351      C3352   1.423       .  A
C3351      C3358   1.445       .  S
C3352      C3353   1.401       .  A
C3353      C3354   1.395       .  A
C3353      H3356   1.085       .  S
C3354      C3357   1.446       .  S
C3357      N3359   1.157       .  T
C3358      N3360   1.158       .  T
C3361      C3362   1.408       .  A
C3361      C3366   1.413   1_455  A
C3362      C3363   1.404       .  A
C3362      H3367   1.084       .  S
C3363      C3364   1.414       .  A
C3363      C3370   1.444       .  S
C3364      C3365   1.411   1_455  A
C3365      C3366   1.405       .  A
C3365      H3368   1.084       .  S
C3366      C3369   1.444       .  S
C3369      N3371   1.157       .  T
C3370      N3372   1.157       .  T
C3373      C3374   1.406       .  A
C3373      C3378   1.424       .  A
C3374      C3375   1.400       .  A
C3374      H3379   1.084       .  S
C3375      C3376   1.409       .  A
C3375      C3382   1.445       .  S
C3376      C3377   1.395       .  A
C3377      C3378   1.396       .  A
C3377      H3380   1.086   1_655  S
C3378      C3381   1.445   1_655  S
C3381      N3383   1.158       .  T
C3382      N3384   1.157       .  T
C3385      C3386   1.408       .  A
C3385      C3390   1.409       .  A
C3386      C3387   1.403       .  A
C3386      H3391   1.085       .  S
C3387      C3388   1.413       .  A
C3387      C3394   1.443       .  S
C3388      C3389   1.411       .  A
C3389      C3390   1.396       .  A
C3389      H3392   1.084       .  S
C3390      C3393   1.445       .  S
C3393      N3395   1.157       .  T
C3394      N3396   1.157       .  T
C3397      C3398   1.402       .  A
C3397      C3402   1.417       .  A
C3398      C3399   1.408       .  A
C3398      H3403   1.085       .  S
C3399      C3400   1.421       .  A
C3399      C3406   1.444       .  S
C3400      C3401   1.405       .  A
C3401      C3402   1.403       .  A
C3401      H3404   1.084       .  S
C3402      C3405   1.445       .  S
C3405      N3407   1.157       .  T
C3406      N3408   1.157       .  T
C3409      C3410   1.408       .  A
C3409      C3414   1.407       .  A
C3410      C3411   1.400       .  A
C3410      H3415   1.085       .  S
C3411      C3412   1.410       .  A
C3411      C3418   1.445       .  S
C3412      C3413   1.411       .  A
C3413      C3414   1.406       .  A
C3413      H3416   1.085       .  S
C3414      C3417   1.443       .  S
C3417      N3419   1.157       .  T
C3418      N3420   1.157       .  T
C3421      C3422   1.404       .  A
C3421      C3426   1.412       .  A
C3422      C3423   1.405       .  A
C3422      H3427   1.085       .  S
C3423      C3424   1.412       .  A
C3423      C3430   1.444       .  S
C3424      C3425   1.401       .  A
C3425      C3426   1.394       .  A
C3425      H3428   1.085       .  S
C3426      C3429   1.446       .  S
C3429      N3431   1.157       .  T
C3430      N3432   1.157       .  T
C3433      C3434   1.404       .  A
C3433      C3438   1.407       .  A
C3434      C3435   1.397       .  A
C3434      H3439   1.085       .  S
C3435      C3436   1.414       .  A
C3435      C3442   1.445       .  S
C3436      C3437   1.411       .  A
C3437      C3438   1.399       .  A
C3437      H3440   1.084       .  S
C3438      C3441   1.444       .  S
C3441      N3443   1.157       .  T
C3442      N3444   1.157       .  T
C3445      C3446   1.406   1_655  A
C3445      C3450   1.423       .  A
C3446      C3447   1.406       .  A
C3446      H3451   1.084   1_554  S
C3447      C3448   1.418       .  A
C3447      C3454   1.444   1_554  S
C3448      C3449   1.401       .  A
C3449      C3450   1.400   1_455  A
C3449      H3452   1.085   1_455  S
C3450      C3453   1.445       .  S
C3453      N3455   1.157       .  T
C3454      N3456   1.157       .  T
C3457      C3458   1.403       .  A
C3457      C3462   1.420       .  A
C3458      C3459   1.395       .  A
C3458      H3463   1.085       .  S
C3459      C3460   1.413       .  A
C3459      C3466   1.446       .  S
C3460      C3461   1.398       .  A
C3461      C3462   1.398       .  A
C3461      H3464   1.085       .  S
C3462      C3465   1.445       .  S
C3465      N3467   1.157       .  T
C3466      N3468   1.157       .  T
C3469      C3470   1.402   1_655  A
C3469      C3474   1.417       .  A
C3470      C3471   1.404       .  A
C3470      H3475   1.085       .  S
C3471      C3472   1.421   1_455  A
C3471      C3478   1.444       .  S
C3472      C3473   1.403       .  A
C3473      C3474   1.397       .  A
C3473      H3476   1.085       .  S
C3474      C3477   1.445       .  S
C3477      N3479   1.157       .  T
C3478      N3480   1.158       .  T
C3481      C3482   1.398       .  A
C3481      C3486   1.413       .  A
C3482      C3483   1.402       .  A
C3482      H3487   1.085       .  S
C3483      C3484   1.421       .  A
C3483      C3490   1.444       .  S
C3484      C3485   1.402       .  A
C3485      C3486   1.397       .  A
C3485      H3488   1.085       .  S
C3486      C3489   1.446       .  S
C3489      N3491   1.157       .  T
C3490      N3492   1.157       .  T
C3493      C3494   1.412       .  A
C3493      C3498   1.411       .  A
C3494      C3495   1.400       .  A
C3494      H3499   1.084       .  S
C3495      C3496   1.407       .  A
C3495      C3502   1.444       .  S
C3496      C3497   1.408       .  A
C3497      C3498   1.392       .  A
C3497      H3500   1.085       .  S
C3498      C3501   1.446       .  S
C3501      N3503   1.158       .  T
C3502      N3504   1.157       .  T
C3505      C3506   1.404   1_556  A
C3505      C3510   1.419       .  A
C3506      C3507   1.399       .  A
C3506      H3511   1.085       .  S
C3507      C3508   1.418       .  A
C3507      C3514   1.445       .  S
C3508      C3509   1.404   1_554  A
C3509      C3510   1.404       .  A
C3509      H3512   1.085       .  S
C3510      C3513   1.444       .  S
C3513      N3515   1.157       .  T
C3514      N3516   1.157       .  T
C3517      C3518   1.407       .  A
C3517      C3522   1.411       .  A
C3518      C3519   1.395       .  A
C3518      H3523   1.085       .  S
C3519      C3520   1.407       .  A
C3519      C3526   1.445       .  S
C3520      C3521   1.406       .  A
C3521      C3522   1.402       .  A
C3521      H3524   1.085       .  S
C3522      C3525   1.444       .  S
C3525      N3527   1.157       .  T
C3526      N3528   1.157       .  T
C3529      C3530   1.410       .  A
C3529      C3534   1.415       .  A
C3530      C3531   1.400       .  A
C3530      H3535   1.084       .  S
C3531      C3532   1.409       .  A
C3531      C3538   1.445       .  S
C3532      C3533   1.404       .  A
C3533      C3534   1.397       .  A
C3533      H3536   1.085       .  S
C3534      C3537   1.444       .  S
C3537      N3539   1.157       .  T
C3538      N3540   1.157   1_556  T
C3541      C3542   1.407       .  A
C3541      C3546   1.413   1_556  A
C3542      C3543   1.402       .  A
C3542      H3547   1.085       .  S
C3543      C3544   1.414   1_556  A
C3543      C3550   1.444       .  S
C3544      C3545   1.407       .  A
C3545      C3546   1.399       .  A
C3545      H3548   1.085       .  S
C3546      C3549   1.445       .  S
C3549      N3551   1.157       .  T
C3550      N3552   1.157       .  T
C3553      C3554   1.400       .  A
C3553      C3558   1.415       .  A
C3554      C3555   1.396       .  A
C3554      H3559   1.085   1_556  S
C3555      C3556   1.413       .  A
C3555      C3562   1.445   1_556  S
C3556      C3557   1.402       .  A
C3557      C3558   1.404       .  A
C3557      H3560   1.085       .  S
C3558      C3561   1.444       .  S
C3561      N3563   1.157       .  T
C3562      N3564   1.157       .  T
C3565      C3566   1.402       .  A
C3565      C3570   1.423       .  A
C3566      C3567   1.394       .  A
C3566      H3571   1.085       .  S
C3567      C3568   1.415       .  A
C3567      C3574   1.446       .  S
C3568      C3569   1.398       .  A
C3569      C3570   1.400       .  A
C3569      H3572   1.085       .  S
C3570      C3573   1.445       .  S
C3573      N3575   1.157       .  T
C3574      N3576   1.157       .  T
C3577      C3578   1.402   1_655  A
C3577      C3582   1.418       .  A
C3578      C3579   1.401       .  A
C3578      H3583   1.085       .  S
C3579      C3580   1.422       .  A
C3579      C3586   1.445       .  S
C3580      C3581   1.404   1_455  A
C3581      C3582   1.402       .  A
C3581      H3584   1.085       .  S
C3582      C3585   1.444       .  S
C3585      N3587   1.157       .  T
C3586      N3588   1.158       .  T
C3589      C3590   1.401       .  A
C3589      C3594   1.411       .  A
C3590      C3591   1.402       .  A
C3590      H3595   1.085       .  S
C3591      C3592   1.414       .  A
C3591      C3598   1.444       .  S
C3592      C3593   1.401       .  A
C3593      C3594   1.394       .  A
C3593      H3596   1.085       .  S
C3594      C3597   1.446   1_554  S
C3597      N3599   1.157       .  T
C3598      N3600   1.157       .  T
C3601      C3602   1.410       .  A
C3601      C3606   1.413       .  A
C3602      C3603   1.393       .  A
C3602      H3607   1.084       .  S
C3603      C3604   1.406       .  A
C3603      C3610   1.445       .  S
C3604      C3605   1.406       .  A
C3605      C3606   1.397       .  A
C3605      H3608   1.085       .  S
C3606      C3609   1.444       .  S
C3609      N3611   1.157       .  T
C3610      N3612   1.157       .  T
C3613      C3614   1.411       .  A
C3613      C3618   1.415       .  A
C3614      C3615   1.402       .  A
C3614      H3619   1.084       .  S
C3615      C3616   1.409       .  A
C3615      C3622   1.444       .  S
C3616      C3617   1.407       .  A
C3617      C3618   1.402       .  A
C3617      H3620   1.085       .  S
C3618      C3621   1.444       .  S
C3621      N3623   1.157       .  T
C3622      N3624   1.157   1_455  T
C3625      C3626   1.407       .  A
C3625      C3630   1.412       .  A
C3626      C3627   1.392       .  A
C3626      H3631   1.085       .  S
C3627      C3628   1.407       .  A
C3627      C3634   1.446       .  S
C3628      C3629   1.404       .  A
C3629      C3630   1.402       .  A
C3629      H3632   1.085       .  S
C3630      C3633   1.443       .  S
C3633      N3635   1.157       .  T
C3634      N3636   1.157       .  T
C3637      C3638   1.406       .  A
C3637      C3642   1.406       .  A
C3638      C3639   1.397       .  A
C3638      H3643   1.085       .  S
C3639      C3640   1.412       .  A
C3639      C3646   1.445       .  S
C3640      C3641   1.411       .  A
C3641      C3642   1.403       .  A
C3641      H3644   1.084       .  S
C3642      C3645   1.443       .  S
C3645      N3647   1.157       .  T
C3646      N3648   1.157       .  T
