geometry optimzed in LAMMPS
_audit_creation_date              2020-12-01 
_audit_creation_method            'lammps2cif' 
_symmetry_space_group_name_H-M    'P1' 
_symmetry_Int_Tables_number       1 
_symmetry_cell_setting            triclinic 
loop_ 
_symmetry_equiv_pos_as_xyz 
  x,y,z 
_cell_length_a                    47.57145023 
_cell_length_b                    47.747660101388306 
_cell_length_c                    24.178148123260108 
_cell_angle_alpha                 91.34040128282253 
_cell_angle_beta                  89.98493562452565 
_cell_angle_gamma                 89.68579530371854 
loop_ 
_atom_site_label 
_atom_site_type_symbol 
_atom_site_fract_x 
_atom_site_fract_y 
_atom_site_fract_z 
_atom_site_charge 
C1          C  0.10426560  0.11160670  0.21957618     0.31200
C2          C  0.13398630  0.14799287  0.28400269     0.31300
C3          C  0.13179221  0.12267816  0.19318751    -0.04900
C4          C  0.08878627  0.13959429  0.23483420    -0.05700
C5          C  0.11385991  0.10061620  0.27607912    -0.05600
C6          C  0.14671553  0.14136309  0.22632896    -0.05000
C7          C  0.10413312  0.15821895  0.26782230    -0.05700
C8          C  0.12920256  0.11896286  0.30853992    -0.05600
C9          C  0.16955263  0.15040010  0.19592210    -0.31000
N10         N  0.16968345  0.13702653  0.14592128     0.15500
C11         C  0.14607457  0.12106648  0.14283483    -0.31000
H12         H  0.13980545  0.10941829  0.10604749     0.17400
C13         C  0.08952590  0.18351509  0.26849676    -0.30000
N14         N  0.06517415  0.18071925  0.23949866     0.14200
C15         C  0.06487366  0.15405864  0.21760662    -0.30000
C16         C  0.13601900  0.10519344  0.35681464    -0.30300
N17         N  0.12455721  0.07898188  0.35523140     0.14700
H18         H  0.14831751  0.11380186  0.39074119     0.17400
C19         C  0.11096742  0.07619054  0.30563622    -0.30300
H20         H  0.09940093  0.05781020  0.29214958     0.17400
H21         H  0.04885435  0.14602184  0.18980897     0.17400
H22         H  0.18514955  0.16557577  0.20893420     0.17400
H23         H  0.09647479  0.20308448  0.28704839     0.17400
N24         N  0.49184969  0.21124044  0.23560398    -0.35400
N25         N  0.03620197  0.25382242  0.23647962    -0.55900
N26         N  0.49343776  0.29803232  0.23666335    -0.35400
N27         N  0.44915293  0.25558737  0.24525678    -0.55900
C28         C  0.01496855  0.19554082  0.24727750     0.28200
C29         C  0.46884487  0.19674000  0.25179962     0.28200
C30         C  0.01696674  0.31298774  0.24900617     0.28200
C31         C  0.47087046  0.31382284  0.25266498     0.28200
C32         C  0.05154395  0.23045349  0.22365920     0.36800
C33         C  0.05247702  0.27626147  0.22475413     0.36800
C34         C  0.43242347  0.23309435  0.23528964     0.36800
C35         C  0.43337958  0.27864553  0.23505693     0.36800
C36         C  0.00648534  0.17094817  0.27151291    -0.20600
C37         C  0.47752246  0.17169703  0.27430351    -0.20600
C38         C  0.00912199  0.33839341  0.27356558    -0.20600
C39         C  0.48014036  0.33895315  0.27563887    -0.20600
C40         C  0.07745595  0.23816787  0.20289612    -0.21700
C41         C  0.07804476  0.26705308  0.20359587    -0.21700
C42         C  0.40610273  0.24188354  0.21829156    -0.21700
C43         C  0.40674870  0.27068711  0.21793921    -0.21700
C44         C  0.04343026  0.20239741  0.23500902    -0.17100
C45         C  0.44017969  0.20484272  0.24434280    -0.17100
C46         C  0.44210398  0.30676268  0.24465944    -0.17000
C47         C  0.04523023  0.30482950  0.23651938    -0.17000
H48         H  0.01971598  0.15422286  0.28631419     0.15900
H49         H  0.46439581  0.15566551  0.29157717     0.15900
H50         H  0.02279384  0.35485338  0.28888561     0.15900
H51         H  0.46736267  0.35591099  0.29254794     0.15900
H52         H  0.09430918  0.22441893  0.18896698     0.14100
H53         H  0.09539543  0.27977733  0.19015734     0.14100
H54         H  0.38833415  0.22893341  0.20688305     0.14100
H55         H  0.38961188  0.28418386  0.20592183     0.14100
H56         H  0.49163521  0.22953691  0.21303707     0.27400
H57         H  0.49267231  0.27936708  0.21361288     0.27400
C58         C  0.35153775  0.36414050  0.28180655     0.31200
C59         C  0.38312954  0.39718002  0.21792968     0.31300
C60         C  0.33901065  0.37048161  0.22441185    -0.04900
C61         C  0.35858392  0.39340888  0.30773758    -0.05700
C62         C  0.38133957  0.35264000  0.26809960    -0.05600
C63         C  0.35529677  0.38694148  0.19165505    -0.05000
C64         C  0.37450373  0.41017742  0.27422937    -0.05700
C65         C  0.39728543  0.36902549  0.23350581    -0.05600
C66         C  0.34147499  0.38921103  0.14121805    -0.31000
N67         N  0.31666866  0.37522046  0.14277923     0.15500
C68         C  0.31519515  0.36335061  0.19365990    -0.31000
H69         H  0.29795663  0.35060637  0.20761642     0.17400
C70         C  0.38206854  0.43379742  0.30495028    -0.30000
N71         N  0.37102119  0.43231121  0.35676410     0.14200
C72         C  0.35744574  0.40725720  0.35926425    -0.30000
C73         C  0.42109839  0.35324483  0.21974942    -0.30300
N74         N  0.42094106  0.32892942  0.24808114     0.14700
H75         H  0.43696218  0.35834019  0.18964463     0.17400
C76         C  0.39688796  0.32865486  0.27845302    -0.30300
H77         H  0.39079281  0.31174930  0.30490053     0.17400
H78         H  0.34811283  0.39941595  0.39657841     0.17400
H79         H  0.34868902  0.40073224  0.10599613     0.17400
H80         H  0.39531995  0.45056289  0.29090463     0.17400
N81         N  0.12355031  0.00655973  0.41315889    -0.35400
N82         N  0.12701385  0.05082258  0.50016194    -0.55900
N83         N  0.12261814  0.00725559  0.58468728    -0.35400
N84         N  0.12481590  0.46304142  0.49764873    -0.55900
C85         C  0.13062120  0.02927574  0.38321604     0.28200
C86         C  0.12932632  0.48317343  0.38174130     0.28200
C87         C  0.12909006  0.03036905  0.61627161     0.28200
C88         C  0.12849571  0.48416208  0.61492042     0.28200
C89         C  0.12132292  0.06655882  0.45518876     0.36800
C90         C  0.12097738  0.06701895  0.54580997     0.36800
C91         C  0.11824416  0.44728236  0.45184161     0.36800
C92         C  0.11860044  0.44742608  0.54243284     0.36800
C93         C  0.14147928  0.02010846  0.33267178    -0.20600
C94         C  0.14063678  0.49118499  0.33173135    -0.20600
C95         C  0.13931324  0.02175620  0.66681997    -0.20600
C96         C  0.13898989  0.49283926  0.66593359    -0.20600
C97         C  0.11145907  0.09267186  0.47263174    -0.21700
C98         C  0.11132723  0.09298100  0.52959669    -0.21700
C99         C  0.10749611  0.42179336  0.46787534    -0.21700
C100        C  0.10782147  0.42184798  0.52483932    -0.21700
C101        C  0.12568768  0.05800343  0.39867832    -0.17100
C102        C  0.12316512  0.45492353  0.39578720    -0.17100
C103        C  0.12341516  0.45551706  0.59894196    -0.17000
C104        C  0.12479159  0.05904949  0.60196553    -0.17000
H105        H  0.14920856  0.03290147  0.29964834     0.15900
H106        H  0.14761706  0.47763099  0.29790360     0.15900
H107        H  0.14657506  0.03491268  0.70088130     0.15900
H108        H  0.14597324  0.47972682  0.69918628     0.15900
H109        H  0.10440378  0.10967193  0.44723491     0.14100
H110        H  0.10423860  0.11024176  0.55589351     0.14100
H111        H  0.09983917  0.40490159  0.44148038     0.14100
H112        H  0.10044622  0.40505054  0.55025045     0.14100
H113        H  0.11251367  0.00707809  0.45029526     0.27400
H114        H  0.11220051  0.00733850  0.54688350     0.27400
N115        N  0.37437828  0.00552175  0.41780777    -0.35400
N116        N  0.37376255  0.46219275  0.50201868    -0.55900
N117        N  0.37602050  0.00572948  0.58945309    -0.35400
N118        N  0.37100955  0.04903803  0.50508191    -0.55900
C119        C  0.36749292  0.48242961  0.38678169     0.28200
C120        C  0.36734156  0.02841270  0.38824259     0.28200
C121        C  0.37020505  0.48265340  0.61915454     0.28200
C122        C  0.36826941  0.02847946  0.62074895     0.28200
C123        C  0.37880544  0.44610227  0.45590691     0.36800
C124        C  0.38037065  0.44635781  0.54622960     0.36800
C125        C  0.37620844  0.06521376  0.46069969     0.36800
C126        C  0.37596107  0.06521350  0.55102551     0.36800
C127        C  0.35573148  0.49090313  0.33735880    -0.20600
C128        C  0.35577864  0.01975126  0.33817636    -0.20600
C129        C  0.35859972  0.49095532  0.66959919    -0.20600
C130        C  0.35747143  0.01976261  0.67063285    -0.20600
C131        C  0.38901991  0.42016113  0.47104545    -0.21700
C132        C  0.38999681  0.42032122  0.52800083    -0.21700
C133        C  0.38468627  0.09160267  0.47876571    -0.21700
C134        C  0.38442152  0.09161723  0.53571737    -0.21700
C135        C  0.37275540  0.45394665  0.40056691    -0.17100
C136        C  0.37198236  0.05692341  0.40422419    -0.17100
C137        C  0.37163888  0.05697268  0.60662381    -0.17000
C138        C  0.37580976  0.45433886  0.60272936    -0.17000
H139        H  0.34759448  0.47777521  0.30407538     0.15900
H140        H  0.34773218  0.03280799  0.30573895     0.15900
H141        H  0.35113263  0.47773223  0.70214602     0.15900
H142        H  0.34913688  0.03275821  0.70408522     0.15900
H143        H  0.39528655  0.40288092  0.44397170     0.14100
H144        H  0.39701992  0.40316017  0.55306448     0.14100
H145        H  0.39073754  0.10904781  0.45371123     0.14100
H146        H  0.39022454  0.10900673  0.56273875     0.14100
H147        H  0.38574832  0.00568390  0.45453789     0.27400
H148        H  0.38697952  0.00604011  0.55224240     0.27400
C149        C  0.10043855  0.39943964  0.77531452     0.31200
C150        C  0.13437424  0.36524409  0.71394839     0.31300
C151        C  0.12894930  0.39158723  0.80371985    -0.04900
C152        C  0.08799750  0.37062446  0.75914655    -0.05700
C153        C  0.11059233  0.41145444  0.71954381    -0.05600
C154        C  0.14588092  0.37347491  0.77244937    -0.05000
C155        C  0.10524111  0.35282503  0.72869339    -0.05700
C156        C  0.12745044  0.39378161  0.68797319    -0.05600
C157        C  0.16933570  0.36724079  0.80460938    -0.31000
N158        N  0.16823998  0.38198260  0.85352663     0.15500
C159        C  0.14360406  0.39701443  0.85318151    -0.31000
H160        H  0.13687972  0.41106343  0.88641425     0.17400
C161        C  0.09125486  0.32714806  0.72505061    -0.30000
N162        N  0.06554691  0.32944097  0.74988706     0.14200
C163        C  0.06374069  0.35597925  0.77170356    -0.30000
C164        C  0.13444579  0.40799780  0.64010526    -0.30300
N165        N  0.12249176  0.43413394  0.64181599     0.14700
H166        H  0.14750276  0.39988141  0.60668721     0.17400
C167        C  0.10860348  0.43649632  0.69107686    -0.30300
H168        H  0.09774746  0.45529748  0.70519744     0.17400
H169        H  0.04621890  0.36399212  0.79598140     0.17400
H170        H  0.18614154  0.35286009  0.79328695     0.17400
H171        H  0.09929891  0.30791871  0.70641452     0.17400
N172        N  0.03592893  0.25636360  0.75307705    -0.35400
N173        N  0.49237388  0.29978158  0.75149523    -0.55900
N174        N  0.44891719  0.25608030  0.74498163    -0.35400
N175        N  0.49236616  0.21278766  0.75646419    -0.55900
C176        C  0.05117888  0.27979807  0.76501234     0.28200
C177        C  0.05104220  0.23379214  0.76975877     0.28200
C178        C  0.43324978  0.27928296  0.75726487     0.28200
C179        C  0.43324942  0.23335357  0.75737645     0.28200
C180        C  0.01530928  0.31535456  0.73933569     0.36800
C181        C  0.46940876  0.31519130  0.73780814     0.36800
C182        C  0.01574245  0.19674148  0.74795913     0.36800
C183        C  0.46994004  0.19680124  0.74136093     0.36800
C184        C  0.07610340  0.27198701  0.79015469    -0.20600
C185        C  0.07600821  0.24310207  0.79318710    -0.20600
C186        C  0.40749243  0.27119364  0.77815391    -0.20600
C187        C  0.40750405  0.24230074  0.77833292    -0.20600
C188        C  0.00673967  0.34050869  0.71707072    -0.21700
C189        C  0.47778310  0.34047018  0.71650851    -0.21700
C190        C  0.00808066  0.17064801  0.72692496    -0.21700
C191        C  0.47922094  0.17071438  0.72263891    -0.21700
C192        C  0.04373111  0.30785463  0.75128226    -0.17100
C193        C  0.04382226  0.20498977  0.76066102    -0.17100
C194        C  0.44115283  0.20482168  0.74775702    -0.17000
C195        C  0.44096557  0.30746601  0.74722546    -0.17000
H196        H  0.09268122  0.28565715  0.80494719     0.15900
H197        H  0.09256858  0.23040260  0.81053268     0.15900
H198        H  0.39041589  0.28467936  0.79201031     0.15900
H199        H  0.39046761  0.22943791  0.79270546     0.15900
H200        H  0.01987279  0.35720704  0.70243902     0.14100
H201        H  0.46442130  0.35707248  0.70158461     0.14100
H202        H  0.02179467  0.15341245  0.71494980     0.14100
H203        H  0.46658053  0.15350389  0.70702847     0.14100
H204        H  0.01768601  0.25559582  0.72934833     0.27400
H205        H  0.46805008  0.25569505  0.72405498     0.27400
C206        C  0.34965758  0.14715899  0.72167168     0.31200
C207        C  0.38327806  0.11608404  0.78720143     0.31300
C208        C  0.35768965  0.11761856  0.69817298    -0.04900
C209        C  0.37863456  0.16023469  0.73593185    -0.05700
C210        C  0.33725395  0.14012804  0.77952862    -0.05600
C211        C  0.37580217  0.10233214  0.73056716    -0.05000
C212        C  0.39589199  0.14426954  0.76939615    -0.05700
C213        C  0.35486590  0.12459557  0.81225367    -0.05600
C214        C  0.38381741  0.07875378  0.69946784    -0.31000
N215        N  0.36968712  0.07839798  0.65047526     0.15500
C216        C  0.35322456  0.10174762  0.64998064    -0.31000
H217        H  0.33927928  0.10682530  0.61631774     0.17400
C218        C  0.42105383  0.15857340  0.77508066    -0.30000
N219        N  0.41945834  0.18319225  0.74786223     0.14200
C220        C  0.39360010  0.18416417  0.72322146    -0.30000
C221        C  0.34147594  0.11993300  0.86202913    -0.30300
N222        N  0.31572875  0.13218337  0.86131265     0.14700
H223        H  0.34978933  0.10810904  0.89605930     0.17400
C224        C  0.31263352  0.14379136  0.81054490    -0.30300
H225        H  0.29334187  0.15352790  0.79716861     0.17400
H226        H  0.38618242  0.20102007  0.69776837     0.17400
H227        H  0.39898680  0.06304998  0.71146915     0.17400
H228        H  0.43940956  0.15158197  0.79733560     0.17400
N229        N  0.24345255  0.37556339  0.08380840    -0.35400
N230        N  0.28654136  0.37891393  0.99875310    -0.55900
N231        N  0.24189902  0.37895808  0.91246727    -0.35400
N232        N  0.19885899  0.38116163  0.99815219    -0.55900
C233        C  0.26660407  0.38109658  0.11513554     0.28200
C234        C  0.22060512  0.38265765  0.11480235     0.28200
C235        C  0.26513626  0.38553904  0.88256660     0.28200
C236        C  0.21875433  0.38593666  0.88220664     0.28200
C237        C  0.30270761  0.37173956  0.04281818     0.36800
C238        C  0.30215684  0.37386477  0.95239508     0.36800
C239        C  0.18327946  0.37499719  0.04340352     0.36800
C240        C  0.18210136  0.37691220  0.95303407     0.36800
C241        C  0.25827197  0.39217057  0.16608514    -0.20600
C242        C  0.22933906  0.39310247  0.16588652    -0.20600
C243        C  0.25651018  0.39708832  0.83318039    -0.20600
C244        C  0.22747934  0.39712486  0.83280634    -0.20600
C245        C  0.32852682  0.36189603  0.02421857    -0.21700
C246        C  0.32818008  0.36320117  0.96732076    -0.21700
C247        C  0.15668908  0.36664918  0.02670164    -0.21700
C248        C  0.15589546  0.36798039  0.96981714    -0.21700
C249        C  0.29496080  0.37537570  0.09968471    -0.17100
C250        C  0.19205419  0.37836632  0.09974763    -0.17100
C251        C  0.18994329  0.38166268  0.89702368    -0.17000
C252        C  0.29385579  0.37996209  0.89700335    -0.17000
H253        H  0.27155814  0.39918301  0.19990731     0.15900
H254        H  0.21624372  0.40081078  0.19957512     0.15900
H255        H  0.26968980  0.40489337  0.80056548     0.15900
H256        H  0.21430293  0.40489650  0.80001524     0.15900
H257        H  0.34578311  0.35427634  0.04893961     0.14100
H258        H  0.34514924  0.35664276  0.94010867     0.14100
H259        H  0.13966765  0.35990170  0.05270115     0.14100
H260        H  0.13814404  0.36253408  0.94383792     0.14100
H261        H  0.24307840  0.36486511  0.04588082     0.27400
H262        H  0.24192300  0.36780394  0.94880475     0.27400
N263        N  0.24392167  0.13888591  0.09185572    -0.35400
N264        N  0.20024438  0.13557478  0.00462545    -0.55900
N265        N  0.24358195  0.13420840  0.92104532    -0.35400
N266        N  0.28752907  0.13280234  0.00740034    -0.55900
C267        C  0.22033056  0.13291955  0.12108263     0.28200
C268        C  0.26657597  0.13161045  0.12304389     0.28200
C269        C  0.22063874  0.12688962  0.89062996     0.28200
C270        C  0.26657768  0.12609666  0.89159563     0.28200
C271        C  0.18435285  0.14287646  0.04911787     0.36800
C272        C  0.18421639  0.14025920  0.95936737     0.36800
C273        C  0.30369350  0.13897360  0.05252996     0.36800
C274        C  0.30330650  0.13786356  0.96178017     0.36800
C275        C  0.22814662  0.12167809  0.17117653    -0.20600
C276        C  0.25714480  0.12084817  0.17240810    -0.20600
C277        C  0.22917899  0.11367186  0.84185315    -0.20600
C278        C  0.25811772  0.11309753  0.84251197    -0.20600
C279        C  0.15831641  0.15254512  0.03209249    -0.21700
C280        C  0.15823979  0.15092746  0.97520896    -0.21700
C281        C  0.32975668  0.14819175  0.03539773    -0.21700
C282        C  0.32946384  0.14767377  0.97825612    -0.21700
C283        C  0.19193585  0.13821609  0.10475391    -0.17100
C284        C  0.29550485  0.13518686  0.10880681    -0.17100
C285        C  0.29491511  0.13214539  0.90574184    -0.17000
C286        C  0.19227417  0.13328759  0.90430574    -0.17000
H287        H  0.21441192  0.11433616  0.20333700     0.15900
H288        H  0.26975549  0.11270380  0.20565958     0.15900
H289        H  0.21596095  0.10530786  0.80907790     0.15900
H290        H  0.27140051  0.10417393  0.81024463     0.15900
H291        H  0.14105388  0.15975809  0.05797895     0.14100
H292        H  0.14097149  0.15682799  0.94872726     0.14100
H293        H  0.34710227  0.15494728  0.06129339     0.14100
H294        H  0.34662501  0.15396837  0.95204469     0.14100
H295        H  0.24447493  0.14961586  0.05488989     0.27400
H296        H  0.24373570  0.14691718  0.95660970     0.27400
C297        C  0.38441711  0.39880940  0.78260002     0.31200
C298        C  0.35085373  0.36722427  0.71591502     0.31300
C299        C  0.35502380  0.39185039  0.80697407    -0.04900
C300        C  0.37792147  0.41106653  0.72567175    -0.05700
C301        C  0.39596217  0.36917715  0.76770422    -0.05600
C302        C  0.33795663  0.37599934  0.77226882    -0.05000
C303        C  0.36116031  0.39497680  0.69131294    -0.05700
C304        C  0.37926004  0.35319698  0.73214023    -0.05600
C305        C  0.31380574  0.36961890  0.80159061    -0.31000
N306        N  0.31542836  0.38110639  0.85368300     0.15500
C307        C  0.34092585  0.39400019  0.85759513    -0.31000
H308        H  0.34889401  0.40365636  0.89528363     0.17400
C309        C  0.36004455  0.40846570  0.64094253    -0.30000
N310        N  0.37477495  0.43279577  0.64460878     0.14200
C311        C  0.38621084  0.43423879  0.69628221    -0.30000
C312        C  0.39458201  0.32891819  0.71935901    -0.30300
N313        N  0.41921244  0.32916114  0.74825995     0.14700
H314        H  0.38858692  0.31242407  0.69035498     0.17400
C315        C  0.41996326  0.35355240  0.77842231    -0.30300
H316        H  0.43701840  0.35960830  0.80570474     0.17400
H317        H  0.39957564  0.45099032  0.71152635     0.17400
H318        H  0.29659343  0.35685988  0.78641632     0.17400
H319        H  0.34918631  0.40123233  0.60405773     0.17400
C320        C  0.38460276  0.11258234  0.22491780     0.31200
C321        C  0.35235525  0.14568290  0.29256288     0.31300
C322        C  0.37756853  0.10056426  0.28175178    -0.04900
C323        C  0.39711530  0.14178378  0.23955532    -0.05700
C324        C  0.35559530  0.12112996  0.20068987    -0.05600
C325        C  0.36105793  0.11721261  0.31556064    -0.05000
C326        C  0.38088594  0.15875127  0.27496631    -0.05700
C327        C  0.33916733  0.13815479  0.23506762    -0.05600
C328        C  0.35704886  0.10305086  0.36439018    -0.31000
N329        N  0.37124835  0.07819938  0.36164999     0.15500
C330        C  0.38397690  0.07663727  0.31100241    -0.31000
H331        H  0.39703045  0.05935638  0.29641057     0.17400
C332        C  0.39445927  0.18457407  0.27854053    -0.30000
N333        N  0.41837457  0.18352835  0.24740766     0.14200
C334        C  0.41918156  0.15806842  0.22128101    -0.30000
C335        C  0.31574579  0.14596679  0.20415824    -0.30300
N336        N  0.31701404  0.13370402  0.15246383     0.14700
H337        H  0.29910196  0.15994181  0.21821835     0.17400
C338        C  0.34165684  0.11888733  0.15001769    -0.30300
H339        H  0.34907979  0.10737538  0.11375580     0.17400
H340        H  0.43456253  0.15226299  0.19006432     0.17400
H341        H  0.34458582  0.11035020  0.39935900     0.17400
H342        H  0.38725639  0.20310490  0.30095597     0.17400
C343        C  0.13556793  0.14985234  0.72584174     0.31200
C344        C  0.10412301  0.11404395  0.78415487     0.31300
C345        C  0.14851959  0.14074344  0.78131307    -0.04900
C346        C  0.10614083  0.16066245  0.74215072    -0.05700
C347        C  0.12973428  0.12105688  0.69623945    -0.05600
C348        C  0.13197675  0.12330160  0.81205854    -0.05000
C349        C  0.08983469  0.14287326  0.77285434    -0.05700
C350        C  0.11322039  0.10321485  0.72630254    -0.05600
C351        C  0.14592140  0.11921843  0.86183529    -0.31000
N352        N  0.17113843  0.13249036  0.86074672     0.15500
C353        C  0.17312510  0.14512387  0.81113396    -0.31000
H354        H  0.19126781  0.15682053  0.79805785     0.17400
C355        C  0.06534607  0.15805507  0.78593579    -0.30000
N356        N  0.06606468  0.18364042  0.76152706     0.14200
C357        C  0.09118847  0.18525940  0.73503233    -0.30000
C358        C  0.10948168  0.07883270  0.69489731    -0.30300
N359        N  0.12383251  0.08065595  0.64632792     0.14700
H360        H  0.09711671  0.06098252  0.70676798     0.17400
C361        C  0.13667159  0.10629551  0.64733964    -0.30300
H362        H  0.15031468  0.11359537  0.61496792     0.17400
H363        H  0.09810798  0.20304822  0.71176568     0.17400
H364        H  0.13840509  0.10731113  0.89632532     0.17400
H365        H  0.04827347  0.15121655  0.81179563     0.17400
C366        C  0.13510159  0.36320327  0.27992907     0.31200
C367        C  0.10249456  0.39568556  0.21601196     0.31300
C368        C  0.14789876  0.37050543  0.22300599    -0.04900
C369        C  0.10655714  0.34997417  0.26246314    -0.05700
C370        C  0.12677396  0.39203646  0.30563670    -0.05600
C371        C  0.13181242  0.38827467  0.19202769    -0.05000
C372        C  0.08996390  0.36695524  0.23011491    -0.05700
C373        C  0.11033595  0.40909143  0.27324752    -0.05600
C374        C  0.14697731  0.39404808  0.14456843    -0.31000
N375        N  0.17098576  0.37859473  0.14363238     0.15500
C376        C  0.17172009  0.36399657  0.19150148    -0.31000
H377        H  0.18843177  0.34974114  0.20269134     0.17400
C378        C  0.06596026  0.35204467  0.21592237    -0.30000
N379        N  0.06728680  0.32615061  0.23839938     0.14200
C380        C  0.09239549  0.32450149  0.26552748    -0.30000
C381        C  0.10846582  0.43482042  0.30214263    -0.30300
N382        N  0.12198032  0.43318079  0.35185354     0.14700
H383        H  0.09874289  0.45379892  0.28778041     0.17400
C384        C  0.13364519  0.40710037  0.35351061    -0.30300
H385        H  0.14667756  0.39967064  0.38685716     0.17400
H386        H  0.09984997  0.30582480  0.28535890     0.17400
H387        H  0.14087836  0.40823747  0.11240446     0.17400
H388        H  0.04879626  0.35952200  0.19075083     0.17400
O389        O  0.02127488  0.01577692  0.11423942    -0.78900
O390        O  0.46602531  0.05207732  0.93848661    -0.78900
O391        O  0.05362979  0.01634169  0.94072937    -0.78900
O392        O  0.44510659  0.03151969  0.04686103    -0.78900
O393        O  0.02178494  0.04872656  0.93818374    -0.79000
O394        O  0.46637410  0.01534519  0.11762289    -0.78900
O395        O  0.43297647  0.02129267  0.95013882    -0.78900
O396        O  0.04486400  0.02880834  0.04314353    -0.78900
C397        C  0.03987371  0.03073880  0.09365214     1.10800
C398        C  0.44058445  0.04544130  0.93594155     1.10700
C399        C  0.04565345  0.04011820  0.92464867     1.10800
C400        C  0.44932607  0.03220642  0.09723876     1.10700
O401        O  0.46421988  0.46294141  0.05299394    -0.78900
O402        O  0.01867863  0.49382512  0.88130410    -0.79000
O403        O  0.06385178  0.47672901  0.02146092    -0.78900
O404        O  0.46336223  0.46774394  0.95043187    -0.78900
O405        O  0.46328200  0.49741936  0.88352847    -0.78900
O406        O  0.02271998  0.46223873  0.05244049    -0.78900
O407        O  0.42343590  0.48050998  0.02782659    -0.78900
O408        O  0.02028146  0.46569242  0.95033740    -0.78900
Co409      Co  0.49370541  0.99104896  0.07669530     1.51500
Co410      Co  0.49259771  0.02304072  0.91528465     1.51700
Co411      Co  0.03145073  0.99700923  0.99924391     1.51600
Co412      Co  0.45581696  0.99900723  0.00241841     1.51500
O413        O  0.49363309  0.01263208  0.99704894    -1.40800
C414        C  0.43749743  0.46460395  0.05900611     1.10700
C415        C  0.02398465  0.46979741  0.90001573     1.10800
C416        C  0.04960305  0.46252683  0.05517003     1.10800
C417        C  0.45773957  0.47345922  0.90148403     1.10700
O418        O  0.23021519  0.22952235  0.38728464    -0.78900
O419        O  0.23178217  0.28561062  0.61152903    -0.78900
O420        O  0.19797376  0.22970800  0.55745374    -0.78900
O421        O  0.22552167  0.32350408  0.46078414    -0.78900
O422        O  0.22859961  0.23048823  0.62442372    -0.79000
O423        O  0.21742761  0.28309642  0.41585943    -0.78900
O424        O  0.20424106  0.28908564  0.53818300    -0.78900
O425        O  0.19887712  0.22988502  0.45081120    -0.78900
C426        C  0.20555154  0.22417035  0.40214855     1.10800
C427        C  0.20897947  0.29358738  0.58892324     1.10700
C428        C  0.20386340  0.22563209  0.60671696     1.10800
C429        C  0.21274954  0.30951639  0.42371415     1.10700
O430        O  0.26675141  0.26975812  0.36639093    -0.78900
O431        O  0.28259450  0.22364385  0.56747712    -0.79000
O432        O  0.25222133  0.19636511  0.45137173    -0.78900
O433        O  0.25888506  0.31279133  0.54576432    -0.78900
O434        O  0.28709559  0.27821480  0.55792480    -0.78900
O435        O  0.28275278  0.23085702  0.44183030    -0.78900
O436        O  0.27317809  0.29429247  0.44465540    -0.78900
O437        O  0.24797824  0.19359216  0.56150861    -0.78900
Co438      Co  0.25177535  0.25722476  0.43290740     1.51500
Co439      Co  0.25783792  0.25438781  0.58716609     1.51700
Co440      Co  0.22415476  0.21384485  0.50501750     1.51600
Co441      Co  0.23721734  0.28964199  0.49099098     1.51500
O442        O  0.24300331  0.25036337  0.51090132    -1.40800
C443        C  0.27849826  0.28954771  0.39313180     1.10700
C444        C  0.27308689  0.19971361  0.57510237     1.10800
C445        C  0.27676766  0.20505373  0.43873955     1.10800
C446        C  0.28161450  0.30360612  0.56506878     1.10700
C447        C  0.08518728  0.40243030  0.11957665     0.24800
C448        C  0.08458719  0.41103318  0.17578297    -0.23300
C449        C  0.06734782  0.43362162  0.19168462     0.19700
C450        C  0.05648709  0.45078378  0.15157029     0.24800
C451        C  0.06265666  0.44530597  0.09563937    -0.23200
C452        C  0.07640453  0.42063247  0.07951262     0.19700
F453        F  0.08085039  0.41377505  0.02557111    -0.13200
F454        F  0.09529216  0.37686785  0.10342098    -0.15500
F455        F  0.03947337  0.47235956  0.16738472    -0.15500
F456        F  0.05842860  0.43735380  0.24453103    -0.13200
C457        C  0.14507806  0.32928059  0.35740138     0.24800
C458        C  0.15475957  0.34821539  0.31782154    -0.23300
C459        C  0.18279416  0.35770271  0.32171449     0.19700
C460        C  0.20165633  0.34474153  0.35614796     0.24800
C461        C  0.19255167  0.32330820  0.38961906    -0.23200
C462        C  0.16419387  0.31600985  0.39162943     0.19700
F463        F  0.15489186  0.29733914  0.42892115    -0.13200
F464        F  0.11734016  0.32595675  0.36779961    -0.15500
F465        F  0.22885307  0.35318115  0.35686965    -0.15500
F466        F  0.19166811  0.38071182  0.29490508    -0.13200
C467        C  0.18410303  0.21071244  0.69604062     0.24800
C468        C  0.18342226  0.21023028  0.63841966    -0.23300
C469        C  0.16339071  0.19351115  0.61011620     0.19700
C470        C  0.14719387  0.17485388  0.63883444     0.24800
C471        C  0.15141478  0.17184373  0.69565893    -0.23200
C472        C  0.16653489  0.19301188  0.72460714     0.19700
F473        F  0.16299845  0.19794918  0.77965637    -0.13200
F474        F  0.20120907  0.22858910  0.72447484    -0.15500
F475        F  0.12660063  0.16077276  0.61129068    -0.15500
F476        F  0.16008294  0.19418317  0.55432556    -0.13200
C477        C  0.05924440  0.09043836  0.81245088     0.24800
C478        C  0.08856811  0.09196261  0.81456195    -0.23300
C479        C  0.10348219  0.07013977  0.84042182     0.19700
C480        C  0.08975777  0.05294495  0.87706431     0.24800
C481        C  0.06073900  0.05567829  0.88350474    -0.23200
C482        C  0.04532965  0.07282158  0.84760751     0.19700
F483        F  0.01678441  0.07210203  0.84553165    -0.13200
F484        F  0.04414212  0.10421381  0.77397056    -0.15500
F485        F  0.10475915  0.03419070  0.90659259    -0.15500
F486        F  0.13113494  0.06525056  0.82987869    -0.13200
C487        C  0.43165261  0.09232119  0.19211583     0.24800
C488        C  0.40196168  0.09188982  0.19107194    -0.23300
C489        C  0.38864945  0.06854802  0.16568586     0.19700
C490        C  0.40423775  0.04903839  0.13492135     0.24800
C491        C  0.43339722  0.05174835  0.13142231    -0.23200
C492        C  0.44698239  0.07346707  0.15958157     0.19700
F493        F  0.47503024  0.07690813  0.15432298    -0.13200
F494        F  0.44620620  0.10886125  0.22806145    -0.15500
F495        F  0.39095011  0.02733558  0.10897603    -0.15500
F496        F  0.36083131  0.06366818  0.17309527    -0.13200
C497        C  0.30568430  0.15089371  0.34067754     0.24800
C498        C  0.33341263  0.16072289  0.33395941    -0.23300
C499        C  0.34412888  0.17908086  0.37533545     0.19700
C500        C  0.32587773  0.19268573  0.41231967     0.24800
C501        C  0.29719801  0.18603047  0.41217451    -0.23200
C502        C  0.28794343  0.16311792  0.38009602     0.19700
F503        F  0.26172929  0.15263716  0.38630804    -0.11000
F504        F  0.29605415  0.12846347  0.31094230    -0.15500
F505        F  0.33631824  0.21169553  0.44949634    -0.15500
F506        F  0.37211311  0.18216005  0.38356719    -0.13200
C507        C  0.32899215  0.32150958  0.68413764     0.24800
C508        C  0.33069142  0.35069631  0.68022288    -0.23300
C509        C  0.31109744  0.36440738  0.64619620     0.19700
C510        C  0.29616157  0.34928541  0.60637677     0.24800
C511        C  0.29829012  0.32005056  0.60428941    -0.23200
C512        C  0.31359059  0.30620567  0.64548531     0.19700
F513        F  0.31260006  0.27792584  0.65026391    -0.13200
F514        F  0.34044005  0.30791121  0.72741627    -0.15500
F515        F  0.27938115  0.36318629  0.57065639    -0.15500
F516        F  0.30529453  0.39213411  0.65310051    -0.13200
C517        C  0.45042254  0.43746311  0.82848782     0.24800
C518        C  0.43973302  0.45487336  0.87042879    -0.23300
C519        C  0.41094044  0.45578203  0.88141707     0.19700
C520        C  0.39287603  0.43869448  0.85143412     0.24800
C521        C  0.40373981  0.41797746  0.81477123    -0.23200
C522        C  0.43248311  0.41942061  0.79997634     0.19700
F523        F  0.44288088  0.40505311  0.75535271    -0.13200
F524        F  0.47799393  0.43823256  0.81462433    -0.15500
F525        F  0.36508927  0.44497174  0.85379967    -0.15500
F526        F  0.40011248  0.47416554  0.91951991    -0.13200
C527        C  0.39007071  0.06963777  0.83178824     0.24800
C528        C  0.39843380  0.09790767  0.82742075    -0.23300
C529        C  0.41417453  0.10991667  0.87127607     0.19700
C530        C  0.42650517  0.09288758  0.91017650     0.24800
C531        C  0.42162454  0.06402017  0.90804739    -0.23200
C532        C  0.40216665  0.05271359  0.87079466     0.19700
F533        F  0.39592081  0.02500780  0.86995206    -0.13200
F534        F  0.36900440  0.05852476  0.80064396    -0.15500
F535        F  0.44337814  0.10449188  0.94973027    -0.15500
F536        F  0.41593578  0.13800913  0.87953423    -0.13200
C537        C  0.28777638  0.18835933  0.66770538     0.24800
C538        C  0.28991579  0.18251571  0.61070894    -0.23300
C539        C  0.31468615  0.17057197  0.58943527     0.19700
C540        C  0.33595076  0.16243049  0.62533083     0.24800
C541        C  0.33168284  0.16415969  0.68302273    -0.23200
C542        C  0.30929866  0.18066024  0.70301947     0.19700
F543        F  0.31020250  0.19267254  0.75435943    -0.13200
F544        F  0.26633980  0.20427195  0.68843375    -0.15500
F545        F  0.36095569  0.15372980  0.60379333    -0.15500
F546        F  0.31889204  0.16837663  0.53397216    -0.13200
C547        C  0.05885175  0.43315302  0.77928039     0.24800
C548        C  0.07898230  0.41673815  0.80721598    -0.23300
C549        C  0.07412955  0.41166002  0.86343593     0.19700
C550        C  0.05378361  0.42700530  0.89236357     0.24800
C551        C  0.03887980  0.44852656  0.86642022    -0.23200
C552        C  0.04064372  0.45066910  0.80898503     0.19700
F553        F  0.02409622  0.46891171  0.78137885    -0.13200
F554        F  0.05496814  0.43070572  0.72382233    -0.15500
F555        F  0.04869207  0.42078604  0.94571223    -0.15500
F556        F  0.08766845  0.39071767  0.88970518    -0.13200
C557        C  0.16087792  0.30957510  0.61117959     0.24800
C558        C  0.18986956  0.31169803  0.61962212    -0.23300
C559        C  0.20079364  0.33412346  0.65100145     0.19700
C560        C  0.18267323  0.35265791  0.67806538     0.24800
C561        C  0.15354582  0.34762229  0.67773746    -0.23200
C562        C  0.14282501  0.32814826  0.63852559     0.19700
F563        F  0.11546674  0.32856771  0.62284630    -0.13200
F564        F  0.15012786  0.28993190  0.57568356    -0.15500
F565        F  0.19353537  0.37620975  0.70202914    -0.15500
F566        F  0.22889064  0.33904361  0.65274546    -0.13200
C567        C  0.29635177  0.33659122  0.37915263     0.24800
C568        C  0.29765043  0.30789363  0.36607714    -0.23300
C569        C  0.31495620  0.29775664  0.32356824     0.19700
C570        C  0.33175719  0.31622431  0.29557998     0.24800
C571        C  0.33285652  0.34473629  0.31239731    -0.23200
C572        C  0.31282400  0.35503368  0.35057676     0.19700
F573        F  0.30631464  0.38264156  0.35534405    -0.13200
F574        F  0.27760417  0.34707288  0.41675451    -0.15500
F575        F  0.34529766  0.30653337  0.24956619    -0.15500
F576        F  0.31530591  0.27014464  0.30866752    -0.13200
C577        C  0.44057242  0.43211090  0.13731647     0.24800
C578        C  0.42407413  0.44843167  0.10163374    -0.23300
C579        C  0.39534723  0.45213483  0.11243257     0.19700
C580        C  0.38313951  0.43818981  0.15555860     0.24800
C581        C  0.39853417  0.41759815  0.18339877    -0.23200
C582        C  0.42784001  0.41744804  0.17909094     0.19700
F583        F  0.44426948  0.40558428  0.21802763    -0.13200
F584        F  0.46902692  0.43075890  0.13307520    -0.15500
F585        F  0.35604782  0.44433236  0.16920820    -0.15500
F586        F  0.37901573  0.46929760  0.08184756    -0.13200
C587        C  0.18123548  0.16312975  0.31875611     0.24800
C588        C  0.15189458  0.16666163  0.32013854    -0.23300
C589        C  0.14040495  0.18737021  0.35581734     0.19700
C590        C  0.15779894  0.20760067  0.37951704     0.24800
C591        C  0.18690132  0.20658710  0.36945670    -0.23200
C592        C  0.19848641  0.18409727  0.33915861     0.19700
F593        F  0.22662104  0.18156209  0.33183198    -0.13200
F594        F  0.19325772  0.13931035  0.29771730    -0.15500
F595        F  0.14637518  0.22754237  0.41381325    -0.15500
F596        F  0.11318387  0.18646251  0.37236529    -0.13200
C597        C  0.10113922  0.07074194  0.15018510     0.24800
C598        C  0.08781273  0.08969070  0.18758941    -0.23300
C599        C  0.05981836  0.08416022  0.20275200     0.19700
C600        C  0.04457847  0.06362743  0.17436324     0.24800
C601        C  0.05648455  0.04960411  0.12851056    -0.23200
C602        C  0.08521645  0.05240570  0.11793053     0.19700
F603        F  0.09827979  0.03571042  0.07944384    -0.13200
F604        F  0.12943756  0.06740104  0.14904210    -0.15500
F605        F  0.01865684  0.05693111  0.19270987    -0.15500
F606        F  0.04769935  0.09742646  0.24701493    -0.13200
C607        C  0.10426558  0.61160662  0.21957645     0.31200
C608        C  0.13398630  0.64799280  0.28400289     0.31300
C609        C  0.13179221  0.62267802  0.19318774    -0.04900
C610        C  0.08878629  0.63959425  0.23483436    -0.05700
C611        C  0.11385983  0.60061617  0.27607944    -0.05600
C612        C  0.14671554  0.64136297  0.22632916    -0.05000
C613        C  0.10413314  0.65821890  0.26782248    -0.05700
C614        C  0.12920252  0.61896281  0.30854018    -0.05600
C615        C  0.16955260  0.65040000  0.19592222    -0.31000
N616        N  0.16968340  0.63702640  0.14592140     0.15500
C617        C  0.14607453  0.62106633  0.14283498    -0.31000
H618        H  0.13980538  0.60941813  0.10604764     0.17400
C619        C  0.08952596  0.68351508  0.26849684    -0.30000
N620        N  0.06517422  0.68071924  0.23949863     0.14200
C621        C  0.06487373  0.65405863  0.21760662    -0.30000
C622        C  0.13601893  0.60519339  0.35681491    -0.30300
N623        N  0.12455707  0.57898187  0.35523176     0.14700
H624        H  0.14831749  0.61380179  0.39074141     0.17400
C625        C  0.11096726  0.57619055  0.30563662    -0.30300
H626        H  0.09940075  0.55781022  0.29215002     0.17400
H627        H  0.04885442  0.64602181  0.18980897     0.17400
H628        H  0.18514947  0.66557572  0.20893426     0.17400
H629        H  0.09647485  0.70308445  0.28704848     0.17400
N630        N  0.49184969  0.71124040  0.23560399    -0.35400
N631        N  0.03620198  0.75382239  0.23647961    -0.55900
N632        N  0.49343775  0.79803230  0.23666336    -0.35400
N633        N  0.44915291  0.75558735  0.24525678    -0.55900
C634        C  0.01496858  0.69554079  0.24727750     0.28200
C635        C  0.46884487  0.69673995  0.25179964     0.28200
C636        C  0.01696671  0.81298771  0.24900615     0.28200
C637        C  0.47087044  0.81382282  0.25266497     0.28200
C638        C  0.05154397  0.73045347  0.22365919     0.36800
C639        C  0.05247701  0.77626145  0.22475413     0.36800
C640        C  0.43242347  0.73309431  0.23528966     0.36800
C641        C  0.43337956  0.77864550  0.23505693     0.36800
C642        C  0.00648535  0.67094813  0.27151291    -0.20600
C643        C  0.47752247  0.67169698  0.27430348    -0.20600
C644        C  0.00912194  0.83839337  0.27356559    -0.20600
C645        C  0.48014033  0.83895313  0.27563884    -0.20600
C646        C  0.07745597  0.73816786  0.20289611    -0.21700
C647        C  0.07804474  0.76705307  0.20359586    -0.21700
C648        C  0.40610273  0.74188349  0.21829158    -0.21700
C649        C  0.40674868  0.77068706  0.21793922    -0.21700
C650        C  0.04343031  0.70239738  0.23500903    -0.17100
C651        C  0.44017968  0.70484268  0.24434290    -0.17100
C652        C  0.44210395  0.80676265  0.24465942    -0.17000
C653        C  0.04523020  0.80482948  0.23651935    -0.17000
H654        H  0.01971597  0.65422281  0.28631419     0.15900
H655        H  0.46439583  0.65566546  0.29157716     0.15900
H656        H  0.02279380  0.85485334  0.28888559     0.15900
H657        H  0.46736266  0.85591100  0.29254785     0.15900
H658        H  0.09430921  0.72441891  0.18896701     0.14100
H659        H  0.09539541  0.77977733  0.19015735     0.14100
H660        H  0.38833414  0.72893335  0.20688309     0.14100
H661        H  0.38961187  0.78418381  0.20592183     0.14100
H662        H  0.49163519  0.72953688  0.21303712     0.27400
H663        H  0.49267230  0.77936705  0.21361290     0.27400
C664        C  0.35153770  0.86414048  0.28180643     0.31200
C665        C  0.38312950  0.89717998  0.21792954     0.31300
C666        C  0.33901059  0.87048156  0.22441171    -0.04900
C667        C  0.35858387  0.89340889  0.30773743    -0.05700
C668        C  0.38133952  0.85263997  0.26809950    -0.05600
C669        C  0.35529672  0.88694143  0.19165490    -0.05000
C670        C  0.37450369  0.91017742  0.27422919    -0.05700
C671        C  0.39728539  0.86902547  0.23350574    -0.05600
C672        C  0.34147495  0.88921096  0.14121788    -0.31000
N673        N  0.31666863  0.87522036  0.14277901     0.15500
C674        C  0.31519510  0.86335055  0.19365971    -0.31000
H675        H  0.29795655  0.85060636  0.20761625     0.17400
C676        C  0.38206850  0.93379745  0.30495004    -0.30000
N677        N  0.37102114  0.93231126  0.35676387     0.14200
C678        C  0.35744571  0.90725725  0.35926407    -0.30000
C679        C  0.42109837  0.85324481  0.21974940    -0.30300
N680        N  0.42094102  0.82892939  0.24808109     0.14700
H681        H  0.43696216  0.85834017  0.18964460     0.17400
C682        C  0.39688789  0.82865480  0.27845290    -0.30300
H683        H  0.39079271  0.81174921  0.30490030     0.17400
H684        H  0.34811281  0.89941605  0.39657829     0.17400
H685        H  0.34868896  0.90073221  0.10599599     0.17400
H686        H  0.39531990  0.95056291  0.29090436     0.17400
N687        N  0.12355018  0.50655973  0.41315914    -0.35400
N688        N  0.12701372  0.55082254  0.50016223    -0.55900
N689        N  0.12261811  0.50725559  0.58468755    -0.35400
N690        N  0.12481608  0.96304138  0.49764854    -0.55900
C691        C  0.13062113  0.52927574  0.38321633     0.28200
C692        C  0.12932647  0.98317344  0.38174108     0.28200
C693        C  0.12909003  0.53036905  0.61627188     0.28200
C694        C  0.12849570  0.98416208  0.61492022     0.28200
C695        C  0.12132284  0.56655880  0.45518905     0.36800
C696        C  0.12097731  0.56701894  0.54581025     0.36800
C697        C  0.11824432  0.94728236  0.45184139     0.36800
C698        C  0.11860058  0.94742604  0.54243262     0.36800
C699        C  0.14147920  0.52010844  0.33267211    -0.20600
C700        C  0.14063688  0.99118500  0.33173107    -0.20600
C701        C  0.13931326  0.52175622  0.66682023    -0.20600
C702        C  0.13898987  0.99283924  0.66593340    -0.20600
C703        C  0.11145902  0.59267185  0.47263200    -0.21700
C704        C  0.11132721  0.59298100  0.52959694    -0.21700
C705        C  0.10749620  0.92179338  0.46787508    -0.21700
C706        C  0.10782158  0.92184795  0.52483905    -0.21700
C707        C  0.12568760  0.55800341  0.39867863    -0.17100
C708        C  0.12316530  0.95492353  0.39578697    -0.17100
C709        C  0.12341516  0.95551706  0.59894177    -0.17000
C710        C  0.12479155  0.55904948  0.60196581    -0.17000
H711        H  0.14920844  0.53290146  0.29964865     0.15900
H712        H  0.14761719  0.97763098  0.29790337     0.15900
H713        H  0.14657512  0.53491270  0.70088154     0.15900
H714        H  0.14597321  0.97972682  0.69918614     0.15900
H715        H  0.10440373  0.60967191  0.44723514     0.14100
H716        H  0.10423858  0.61024178  0.55589374     0.14100
H717        H  0.09983918  0.90490167  0.44148009     0.14100
H718        H  0.10044626  0.90505050  0.55025008     0.14100
H719        H  0.11251350  0.50707810  0.45029535     0.27400
H720        H  0.11220043  0.50733851  0.54688380     0.27400
N721        N  0.37437825  0.50552170  0.41780791    -0.35400
N722        N  0.37376241  0.96219280  0.50201852    -0.55900
N723        N  0.37602052  0.50572947  0.58945322    -0.35400
N724        N  0.37100957  0.54903801  0.50508203    -0.55900
C725        C  0.36749290  0.98242967  0.38678154     0.28200
C726        C  0.36734159  0.52841266  0.38824271     0.28200
C727        C  0.37020496  0.98265342  0.61915436     0.28200
C728        C  0.36826939  0.52847943  0.62074907     0.28200
C729        C  0.37880533  0.94610234  0.45590673     0.36800
C730        C  0.38037050  0.94635782  0.54622943     0.36800
C731        C  0.37620850  0.56521373  0.46069980     0.36800
C732        C  0.37596103  0.56521349  0.55102565     0.36800
C733        C  0.35573139  0.99090317  0.33735874    -0.20600
C734        C  0.35577875  0.51975122  0.33817641    -0.20600
C735        C  0.35859965  0.99095536  0.66959902    -0.20600
C736        C  0.35747144  0.51976257  0.67063296    -0.20600
C737        C  0.38901983  0.92016121  0.47104524    -0.21700
C738        C  0.38999667  0.92032123  0.52800063    -0.21700
C739        C  0.38468630  0.59160265  0.47876585    -0.21700
C740        C  0.38442149  0.59161721  0.53571751    -0.21700
C741        C  0.37275535  0.95394672  0.40056671    -0.17100
C742        C  0.37198240  0.55692338  0.40422431    -0.17100
C743        C  0.37163885  0.55697266  0.60662397    -0.17000
C744        C  0.37580966  0.95433888  0.60272921    -0.17000
H745        H  0.34759436  0.97777523  0.30407538     0.15900
H746        H  0.34773236  0.53280793  0.30573891     0.15900
H747        H  0.35113257  0.97773228  0.70214585     0.15900
H748        H  0.34913687  0.53275816  0.70408530     0.15900
H749        H  0.39528659  0.90288108  0.44397140     0.14100
H750        H  0.39701982  0.90316017  0.55306424     0.14100
H751        H  0.39073755  0.60904783  0.45371145     0.14100
H752        H  0.39022448  0.60900672  0.56273890     0.14100
H753        H  0.38574826  0.50568383  0.45453813     0.27400
H754        H  0.38697947  0.50604012  0.55224246     0.27400
C755        C  0.10043855  0.89943969  0.77531431     0.31200
C756        C  0.13437422  0.86524410  0.71394819     0.31300
C757        C  0.12894930  0.89158728  0.80371960    -0.04900
C758        C  0.08799749  0.87062450  0.75914641    -0.05700
C759        C  0.11059231  0.91145443  0.71954356    -0.05600
C760        C  0.14588091  0.87347492  0.77244916    -0.05000
C761        C  0.10524108  0.85282505  0.72869323    -0.05700
C762        C  0.12745042  0.89378160  0.68797295    -0.05600
C763        C  0.16933567  0.86724077  0.80460919    -0.31000
N764        N  0.16823995  0.88198263  0.85352640     0.15500
C765        C  0.14360405  0.89701448  0.85318127    -0.31000
H766        H  0.13687972  0.91106350  0.88641399     0.17400
C767        C  0.09125483  0.82714808  0.72505055    -0.30000
N768        N  0.06554689  0.82944103  0.74988704     0.14200
C769        C  0.06374070  0.85597931  0.77170354    -0.30000
C770        C  0.13444576  0.90799781  0.64010502    -0.30300
N771        N  0.12249174  0.93413395  0.64181579     0.14700
H772        H  0.14750271  0.89988144  0.60668693     0.17400
C773        C  0.10860349  0.93649631  0.69107668    -0.30300
H774        H  0.09774752  0.95529747  0.70519736     0.17400
H775        H  0.04621894  0.86399220  0.79598143     0.17400
H776        H  0.18614152  0.85286007  0.79328678     0.17400
H777        H  0.09929888  0.80791871  0.70641452     0.17400
N778        N  0.03592893  0.75636366  0.75307705    -0.35400
N779        N  0.49237383  0.79978160  0.75149517    -0.55900
N780        N  0.44891717  0.75608036  0.74498163    -0.35400
N781        N  0.49236613  0.71278768  0.75646438    -0.55900
C782        C  0.05117887  0.77979814  0.76501233     0.28200
C783        C  0.05104219  0.73379221  0.76975888     0.28200
C784        C  0.43324975  0.77928302  0.75726480     0.28200
C785        C  0.43324939  0.73335364  0.75737652     0.28200
C786        C  0.01530927  0.81535465  0.73933572     0.36800
C787        C  0.46940872  0.81519133  0.73780806     0.36800
C788        C  0.01574246  0.69674159  0.74795921     0.36800
C789        C  0.46994000  0.69680125  0.74136126     0.36800
C790        C  0.07610338  0.77198710  0.79015477    -0.20600
C791        C  0.07600817  0.74310216  0.79318734    -0.20600
C792        C  0.40749240  0.77119374  0.77815385    -0.20600
C793        C  0.40750402  0.74230084  0.77833293    -0.20600
C794        C  0.00673964  0.84050878  0.71707076    -0.21700
C795        C  0.47778306  0.84047021  0.71650850    -0.21700
C796        C  0.00808065  0.67064814  0.72692495    -0.21700
C797        C  0.47922089  0.67071437  0.72263923    -0.21700
C798        C  0.04373110  0.80785470  0.75128226    -0.17100
C799        C  0.04382226  0.70498985  0.76066109    -0.17100
C800        C  0.44115279  0.70482173  0.74775728    -0.17000
C801        C  0.44096553  0.80746605  0.74722527    -0.17000
H802        H  0.09268120  0.78565725  0.80494726     0.15900
H803        H  0.09256851  0.73040271  0.81053310     0.15900
H804        H  0.39041584  0.78467947  0.79201014     0.15900
H805        H  0.39046757  0.72943802  0.79270548     0.15900
H806        H  0.01987274  0.85720716  0.70243914     0.14100
H807        H  0.46442126  0.85707249  0.70158453     0.14100
H808        H  0.02179462  0.65341254  0.71494979     0.14100
H809        H  0.46658048  0.65350389  0.70702876     0.14100
H810        H  0.01768602  0.75559587  0.72934827     0.27400
H811        H  0.46805006  0.75569511  0.72405499     0.27400
C812        C  0.34965755  0.64715897  0.72167195     0.31200
C813        C  0.38327804  0.61608404  0.78720167     0.31300
C814        C  0.35768962  0.61761854  0.69817324    -0.04900
C815        C  0.37863452  0.66023469  0.73593218    -0.05700
C816        C  0.33725391  0.64012802  0.77952887    -0.05600
C817        C  0.37580215  0.60233213  0.73056741    -0.05000
C818        C  0.39589196  0.64426955  0.76939646    -0.05700
C819        C  0.35486587  0.62459554  0.81225391    -0.05600
C820        C  0.38381738  0.57875375  0.69946811    -0.31000
N821        N  0.36968709  0.57839795  0.65047549     0.15500
C822        C  0.35322453  0.60174759  0.64998091    -0.31000
H823        H  0.33927926  0.60682529  0.61631801     0.17400
C824        C  0.42105378  0.65857345  0.77508102    -0.30000
N825        N  0.41945827  0.68319232  0.74786263     0.14200
C826        C  0.39360002  0.68416420  0.72322188    -0.30000
C827        C  0.34147592  0.61993297  0.86202936    -0.30300
N828        N  0.31572873  0.63218334  0.86131289     0.14700
H829        H  0.34978930  0.60810897  0.89605950     0.17400
C830        C  0.31263349  0.64379135  0.81054516    -0.30300
H831        H  0.29334184  0.65352789  0.79716889     0.17400
H832        H  0.38618231  0.70102009  0.69776879     0.17400
H833        H  0.39898678  0.56304996  0.71146945     0.17400
H834        H  0.43940953  0.65158202  0.79733589     0.17400
N835        N  0.24345251  0.87556336  0.08380797    -0.35400
N836        N  0.28654133  0.87891390  0.99875290    -0.55900
N837        N  0.24189898  0.87895822  0.91246717    -0.35400
N838        N  0.19885891  0.88116176  0.99815196    -0.55900
C839        C  0.26660403  0.88109656  0.11513523     0.28200
C840        C  0.22060506  0.88265758  0.11480201     0.28200
C841        C  0.26513623  0.88553914  0.88256645     0.28200
C842        C  0.21875430  0.88593679  0.88220646     0.28200
C843        C  0.30270758  0.87173953  0.04281796     0.36800
C844        C  0.30215682  0.87386481  0.95239488     0.36800
C845        C  0.18327940  0.87499721  0.04340324     0.36800
C846        C  0.18210129  0.87691233  0.95303383     0.36800
C847        C  0.25827189  0.89217050  0.16608483    -0.20600
C848        C  0.22933898  0.89310235  0.16588619    -0.20600
C849        C  0.25651016  0.89708837  0.83318019    -0.20600
C850        C  0.22747932  0.89712493  0.83280612    -0.20600
C851        C  0.32852681  0.86189604  0.02421836    -0.21700
C852        C  0.32818009  0.86320125  0.96732054    -0.21700
C853        C  0.15668905  0.86664918  0.02670132    -0.21700
C854        C  0.15589542  0.86798042  0.96981683    -0.21700
C855        C  0.29496077  0.87537563  0.09968446    -0.17100
C856        C  0.19205415  0.87836623  0.09974732    -0.17100
C857        C  0.18994325  0.88166278  0.89702347    -0.17000
C858        C  0.29385576  0.87996216  0.89700319    -0.17000
H859        H  0.27155804  0.89918292  0.19990704     0.15900
H860        H  0.21624362  0.90081056  0.19957482     0.15900
H861        H  0.26968979  0.90489339  0.80056526     0.15900
H862        H  0.21430292  0.90489655  0.80001498     0.15900
H863        H  0.34578307  0.85427632  0.04893943     0.14100
H864        H  0.34514928  0.85664292  0.94010844     0.14100
H865        H  0.13966763  0.85990165  0.05270082     0.14100
H866        H  0.13814402  0.86253405  0.94383759     0.14100
H867        H  0.24307837  0.86486504  0.04588067     0.27400
H868        H  0.24192293  0.86780404  0.94880444     0.27400
N869        N  0.24392166  0.63888589  0.09185597    -0.35400
N870        N  0.20024436  0.63557472  0.00462554    -0.55900
N871        N  0.24358193  0.63420837  0.92104550    -0.35400
N872        N  0.28752905  0.63280232  0.00740057    -0.55900
C873        C  0.22033054  0.63291952  0.12108276     0.28200
C874        C  0.26657595  0.63161044  0.12304408     0.28200
C875        C  0.22063872  0.62688961  0.89063009     0.28200
C876        C  0.26657766  0.62609663  0.89159580     0.28200
C877        C  0.18435281  0.64287635  0.04911797     0.36800
C878        C  0.18421639  0.64025919  0.95936747     0.36800
C879        C  0.30369348  0.63897359  0.05253017     0.36800
C880        C  0.30330646  0.63786353  0.96178038     0.36800
C881        C  0.22814657  0.62167805  0.17117667    -0.20600
C882        C  0.25714474  0.62084816  0.17240828    -0.20600
C883        C  0.22917895  0.61367181  0.84185330    -0.20600
C884        C  0.25811769  0.61309752  0.84251211    -0.20600
C885        C  0.15831637  0.65254503  0.03209259    -0.21700
C886        C  0.15823979  0.65092743  0.97520906    -0.21700
C887        C  0.32975667  0.64819175  0.03539791    -0.21700
C888        C  0.32946379  0.64767374  0.97825629    -0.21700
C889        C  0.19193580  0.63821599  0.10475402    -0.17100
C890        C  0.29550483  0.63518682  0.10880701    -0.17100
C891        C  0.29491508  0.63214535  0.90574206    -0.17000
C892        C  0.19227417  0.63328762  0.90430583    -0.17000
H893        H  0.21441187  0.61433609  0.20333711     0.15900
H894        H  0.26975541  0.61270380  0.20565979     0.15900
H895        H  0.21596089  0.60530778  0.80907810     0.15900
H896        H  0.27140050  0.60417393  0.81024478     0.15900
H897        H  0.14105384  0.65975800  0.05797904     0.14100
H898        H  0.14097151  0.65682797  0.94872733     0.14100
H899        H  0.34710227  0.65494731  0.06129353     0.14100
H900        H  0.34662492  0.65396834  0.95204476     0.14100
H901        H  0.24447494  0.64961589  0.05488994     0.27400
H902        H  0.24373568  0.64691710  0.95660988     0.27400
C903        C  0.38441710  0.89880947  0.78259988     0.31200
C904        C  0.35085370  0.86722434  0.71591489     0.31300
C905        C  0.35502380  0.89185045  0.80697399    -0.04900
C906        C  0.37792138  0.91106664  0.72567169    -0.05700
C907        C  0.39596218  0.86917724  0.76770393    -0.05600
C908        C  0.33795662  0.87599942  0.77226872    -0.05000
C909        C  0.36116025  0.89497687  0.69131286    -0.05700
C910        C  0.37926003  0.85319708  0.73213996    -0.05600
C911        C  0.31380570  0.86961905  0.80159046    -0.31000
N912        N  0.31542832  0.88110653  0.85368285     0.15500
C913        C  0.34092581  0.89400032  0.85759504    -0.31000
H914        H  0.34889394  0.90365650  0.89528357     0.17400
C915        C  0.36004452  0.90846573  0.64094244    -0.30000
N916        N  0.37477490  0.93279581  0.64460869     0.14200
C917        C  0.38621074  0.93423891  0.69628217    -0.30000
C918        C  0.39458198  0.82891828  0.71935876    -0.30300
N919        N  0.41921240  0.82916119  0.74825974     0.14700
H920        H  0.38858687  0.81242416  0.69035473     0.17400
C921        C  0.41996324  0.85355246  0.77842207    -0.30300
H922        H  0.43701837  0.85960833  0.80570454     0.17400
H923        H  0.39957552  0.95099046  0.71152635     0.17400
H924        H  0.29659337  0.85686005  0.78641617     0.17400
H925        H  0.34918631  0.90123231  0.60405765     0.17400
C926        C  0.38460276  0.61258227  0.22491785     0.31200
C927        C  0.35235528  0.64568287  0.29256295     0.31300
C928        C  0.37756856  0.60056422  0.28175186    -0.04900
C929        C  0.39711530  0.64178374  0.23955532    -0.05700
C930        C  0.35559529  0.62112985  0.20068998    -0.05600
C931        C  0.36105799  0.61721260  0.31556076    -0.05000
C932        C  0.38088595  0.65875123  0.27496632    -0.05700
C933        C  0.33916735  0.63815470  0.23506772    -0.05600
C934        C  0.35704895  0.60305089  0.36439036    -0.31000
N935        N  0.37124838  0.57819936  0.36165011     0.15500
C936        C  0.38397690  0.57663722  0.31100249    -0.31000
H937        H  0.39703040  0.55935630  0.29641065     0.17400
C938        C  0.39445928  0.68457402  0.27854066    -0.30000
N939        N  0.41837459  0.68352830  0.24740781     0.14200
C940        C  0.41918156  0.65806840  0.22128107    -0.30000
C941        C  0.31574580  0.64596668  0.20415836    -0.30300
N942        N  0.31701401  0.63370388  0.15246401     0.14700
H943        H  0.29910200  0.65994175  0.21821840     0.17400
C944        C  0.34165679  0.61888717  0.15001784    -0.30300
H945        H  0.34907973  0.60737524  0.11375593     0.17400
H946        H  0.43456252  0.65226302  0.19006431     0.17400
H947        H  0.34458594  0.61035026  0.39935920     0.17400
H948        H  0.38725639  0.70310486  0.30095608     0.17400
C949        C  0.13556790  0.64985237  0.72584188     0.31200
C950        C  0.10412298  0.61404400  0.78415503     0.31300
C951        C  0.14851957  0.64074346  0.78131319    -0.04900
C952        C  0.10614081  0.66066250  0.74215086    -0.05700
C953        C  0.12973426  0.62105689  0.69623964    -0.05600
C954        C  0.13197673  0.62330164  0.81205870    -0.05000
C955        C  0.08983466  0.64287331  0.77285443    -0.05700
C956        C  0.11322036  0.60321487  0.72630275    -0.05600
C957        C  0.14592141  0.61921845  0.86183542    -0.31000
N958        N  0.17113843  0.63249040  0.86074681     0.15500
C959        C  0.17312509  0.64512388  0.81113402    -0.31000
H960        H  0.19126780  0.65682051  0.79805779     0.17400
C961        C  0.06534603  0.65805514  0.78593584    -0.30000
N962        N  0.06606467  0.68364049  0.76152715     0.14200
C963        C  0.09118849  0.68525948  0.73503252    -0.30000
C964        C  0.10948167  0.57883270  0.69489758    -0.30300
N965        N  0.12383251  0.58065594  0.64632820     0.14700
H966        H  0.09711668  0.56098253  0.70676828     0.17400
C967        C  0.13667160  0.60629550  0.64733989    -0.30300
H968        H  0.15031468  0.61359536  0.61496816     0.17400
H969        H  0.09810805  0.70304833  0.71176599     0.17400
H970        H  0.13840514  0.60731113  0.89632545     0.17400
H971        H  0.04827342  0.65121661  0.81179566     0.17400
C972        C  0.13510157  0.86320324  0.27992884     0.31200
C973        C  0.10249457  0.89568555  0.21601178     0.31300
C974        C  0.14789874  0.87050539  0.22300577    -0.04900
C975        C  0.10655712  0.84997416  0.26246296    -0.05700
C976        C  0.12677395  0.89203644  0.30563648    -0.05600
C977        C  0.13181242  0.88827464  0.19202750    -0.05000
C978        C  0.08996388  0.86695523  0.23011475    -0.05700
C979        C  0.11033597  0.90909143  0.27324731    -0.05600
C980        C  0.14697730  0.89404799  0.14456822    -0.31000
N981        N  0.17098573  0.87859461  0.14363212     0.15500
C982        C  0.17172006  0.86399650  0.19150128    -0.31000
H983        H  0.18843174  0.84974109  0.20269121     0.17400
C984        C  0.06596021  0.85204468  0.21592235    -0.30000
N985        N  0.06728675  0.82615062  0.23839935     0.14200
C986        C  0.09239545  0.82450149  0.26552739    -0.30000
C987        C  0.10846597  0.93482045  0.30214236    -0.30300
N988        N  0.12198048  0.93318080  0.35185328     0.14700
H989        H  0.09874312  0.95379898  0.28778009     0.17400
C990        C  0.13364524  0.90710032  0.35351036    -0.30300
H991        H  0.14667758  0.89967053  0.38685689     0.17400
H992        H  0.09984993  0.80582480  0.28535876     0.17400
H993        H  0.14087835  0.90823738  0.11240427     0.17400
H994        H  0.04879619  0.85952203  0.19075091     0.17400
O995        O  0.02127484  0.51577693  0.11423958    -0.78900
O996        O  0.46602528  0.55207729  0.93848670    -0.78900
O997        O  0.05362979  0.51634174  0.94072963    -0.78900
O998        O  0.44510636  0.53151953  0.04686108    -0.78900
O999        O  0.02178490  0.54872657  0.93818400    -0.79000
O1000       O  0.46637407  0.51534513  0.11762283    -0.78900
O1001       O  0.43297644  0.52129263  0.95013879    -0.78900
O1002       O  0.04486397  0.52880837  0.04314374    -0.78900
C1003       C  0.03987365  0.53073884  0.09365234     1.10800
C1004       C  0.44058443  0.54544127  0.93594158     1.10700
C1005       C  0.04565344  0.54011826  0.92464897     1.10800
C1006       C  0.44932599  0.53220634  0.09723876     1.10700
O1007       O  0.46421986  0.96294153  0.05299402    -0.78900
O1008       O  0.01867856  0.99382512  0.88130397    -0.79000
O1009       O  0.06385173  0.97672896  0.02146078    -0.78900
O1010       O  0.46336208  0.96774394  0.95043189    -0.78900
O1011       O  0.46328200  0.99741936  0.88352844    -0.78900
O1012       O  0.02271992  0.96223870  0.05244023    -0.78900
O1013       O  0.42343590  0.98051019  0.02782685    -0.78900
O1014       O  0.02028141  0.96569240  0.95033723    -0.78900
Co1015     Co  0.49370537  0.49104889  0.07669537     1.51500
Co1016     Co  0.49259769  0.52304070  0.91528478     1.51700
Co1017     Co  0.03145074  0.49700924  0.99924411     1.51600
Co1018     Co  0.45581692  0.49900716  0.00241838     1.51500
O1019       O  0.49363303  0.51263206  0.99704909    -1.40800
C1020       C  0.43749741  0.96460410  0.05900624     1.10700
C1021       C  0.02398458  0.96979740  0.90001556     1.10800
C1022       C  0.04960298  0.96252676  0.05516981     1.10800
C1023       C  0.45773950  0.97345925  0.90148401     1.10700
O1024       O  0.23021525  0.72952218  0.38728481    -0.78900
O1025       O  0.23178214  0.78561064  0.61152884    -0.78900
O1026       O  0.19797377  0.72970798  0.55745383    -0.78900
O1027       O  0.22552170  0.82350397  0.46078384    -0.78900
O1028       O  0.22859961  0.73048822  0.62442382    -0.79000
O1029       O  0.21742763  0.78309629  0.41585926    -0.78900
O1030       O  0.20424103  0.78908560  0.53818278    -0.78900
O1031       O  0.19887712  0.72988498  0.45081127    -0.78900
C1032       C  0.20555156  0.72417028  0.40214864     1.10800
C1033       C  0.20897945  0.79358740  0.58892300     1.10700
C1034       C  0.20386340  0.72563207  0.60671707     1.10800
C1035       C  0.21274956  0.80951629  0.42371387     1.10700
O1036       O  0.26675157  0.76975792  0.36639094    -0.78900
O1037       O  0.28259450  0.72364384  0.56747741    -0.79000
O1038       O  0.25222132  0.69636497  0.45137184    -0.78900
O1039       O  0.25888506  0.81279129  0.54576401    -0.78900
O1040       O  0.28709556  0.77821477  0.55792480    -0.78900
O1041       O  0.28275281  0.73085685  0.44183043    -0.78900
O1042       O  0.27317807  0.79429239  0.44465529    -0.78900
O1043       O  0.24797827  0.69359213  0.56150866    -0.78900
Co1044     Co  0.25177542  0.75722462  0.43290740     1.51500
Co1045     Co  0.25783790  0.75438781  0.58716613     1.51700
Co1046     Co  0.22415477  0.71384479  0.50501757     1.51600
Co1047     Co  0.23721733  0.78964190  0.49099078     1.51500
O1048       O  0.24300335  0.75036329  0.51090131    -1.40800
C1049       C  0.27849832  0.78954758  0.39313175     1.10700
C1050       C  0.27308690  0.69971359  0.57510257     1.10800
C1051       C  0.27676769  0.70505356  0.43873976     1.10800
C1052       C  0.28161448  0.80360610  0.56506862     1.10700
C1053       C  0.08518725  0.90243025  0.11957655     0.24800
C1054       C  0.08458722  0.91103318  0.17578280    -0.23300
C1055       C  0.06734791  0.93362165  0.19168443     0.19700
C1056       C  0.05648710  0.95078377  0.15157008     0.24800
C1057       C  0.06265658  0.94530589  0.09563917    -0.23200
C1058       C  0.07640444  0.92063237  0.07951250     0.19700
F1059       F  0.08085016  0.91377482  0.02557102    -0.13200
F1060       F  0.09529214  0.87686779  0.10342095    -0.15500
F1061       F  0.03947335  0.97235952  0.16738444    -0.15500
F1062       F  0.05842874  0.93735381  0.24453086    -0.13200
C1063       C  0.14507806  0.82928055  0.35740109     0.24800
C1064       C  0.15475956  0.84821532  0.31782121    -0.23300
C1065       C  0.18279415  0.85770261  0.32171408     0.19700
C1066       C  0.20165633  0.84474142  0.35614755     0.24800
C1067       C  0.19255166  0.82330814  0.38961879    -0.23200
C1068       C  0.16419385  0.81600984  0.39162921     0.19700
F1069       F  0.15489184  0.79733909  0.42892083    -0.13200
F1070       F  0.11734016  0.82595671  0.36779927    -0.15500
F1071       F  0.22885310  0.85318093  0.35686888    -0.15500
F1072       F  0.19166809  0.88071174  0.29490471    -0.13200
C1073       C  0.18410301  0.71071244  0.69604075     0.24800
C1074       C  0.18342227  0.71023024  0.63841977    -0.23300
C1075       C  0.16339074  0.69351109  0.61011630     0.19700
C1076       C  0.14719386  0.67485388  0.63883456     0.24800
C1077       C  0.15141474  0.67184376  0.69565908    -0.23200
C1078       C  0.16653486  0.69301190  0.72460731     0.19700
F1079       F  0.16299845  0.69794917  0.77965658    -0.13200
F1080       F  0.20120907  0.72858910  0.72447492    -0.15500
F1081       F  0.12660063  0.66077275  0.61129077    -0.15500
F1082       F  0.16008296  0.69418315  0.55432565    -0.13200
C1083       C  0.05924439  0.59043842  0.81245108     0.24800
C1084       C  0.08856809  0.59196269  0.81456213    -0.23300
C1085       C  0.10348218  0.57013986  0.84042201     0.19700
C1086       C  0.08975776  0.55294510  0.87706462     0.24800
C1087       C  0.06073898  0.55567840  0.88350506    -0.23200
C1088       C  0.04532964  0.57282165  0.84760770     0.19700
F1089       F  0.01678440  0.57210215  0.84553176    -0.13200
F1090       F  0.04414208  0.60421387  0.77397079    -0.15500
F1091       F  0.10475912  0.53419072  0.90659261    -0.15500
F1092       F  0.13113490  0.56525056  0.82987868    -0.13200
C1093       C  0.43165258  0.59232111  0.19211582     0.24800
C1094       C  0.40196165  0.59188974  0.19107198    -0.23300
C1095       C  0.38864942  0.56854792  0.16568602     0.19700
C1096       C  0.40423773  0.54903828  0.13492161     0.24800
C1097       C  0.43339718  0.55174827  0.13142237    -0.23200
C1098       C  0.44698235  0.57346701  0.15958155     0.19700
F1099       F  0.47503020  0.57690811  0.15432292    -0.13200
F1100       F  0.44620620  0.60886125  0.22806118    -0.15500
F1101       F  0.39095006  0.52733547  0.10897638    -0.15500
F1102       F  0.36083131  0.56366800  0.17309566    -0.13200
C1103       C  0.30568436  0.65089362  0.34067778     0.24800
C1104       C  0.33341267  0.66072284  0.33395953    -0.23300
C1105       C  0.34412893  0.67908080  0.37533559     0.19700
C1106       C  0.32587777  0.69268567  0.41231982     0.24800
C1107       C  0.29719808  0.68603031  0.41217485    -0.23200
C1108       C  0.28794352  0.66311776  0.38009641     0.19700
F1109       F  0.26172936  0.65263704  0.38630841    -0.11000
F1110       F  0.29605416  0.62846347  0.31094237    -0.15500
F1111       F  0.33631823  0.71169553  0.44949640    -0.15500
F1112       F  0.37211317  0.68216003  0.38356726    -0.13200
C1113       C  0.32899211  0.82150962  0.68413760     0.24800
C1114       C  0.33069137  0.85069635  0.68022282    -0.23300
C1115       C  0.31109738  0.86440740  0.64619614     0.19700
C1116       C  0.29616153  0.84928543  0.60637666     0.24800
C1117       C  0.29829009  0.82005058  0.60428926    -0.23200
C1118       C  0.31359056  0.80620571  0.64548522     0.19700
F1119       F  0.31260002  0.77792590  0.65026390    -0.13200
F1120       F  0.34044002  0.80791123  0.72741621    -0.15500
F1121       F  0.27938109  0.86318630  0.57065631    -0.15500
F1122       F  0.30529447  0.89213412  0.65310046    -0.13200
C1123       C  0.45042249  0.93746327  0.82848760     0.24800
C1124       C  0.43973295  0.95487346  0.87042864    -0.23300
C1125       C  0.41094038  0.95578213  0.88141688     0.19700
C1126       C  0.39287598  0.93869461  0.85143385     0.24800
C1127       C  0.40373979  0.91797757  0.81477104    -0.23200
C1128       C  0.43248308  0.91942073  0.79997615     0.19700
F1129       F  0.44288088  0.90505322  0.75535256    -0.13200
F1130       F  0.47799389  0.93823273  0.81462425    -0.15500
F1131       F  0.36508921  0.94497177  0.85379963    -0.15500
F1132       F  0.40011244  0.97416553  0.91951994    -0.13200
C1133       C  0.39007065  0.56963777  0.83178837     0.24800
C1134       C  0.39843379  0.59790766  0.82742090    -0.23300
C1135       C  0.41417460  0.60991664  0.87127618     0.19700
C1136       C  0.42650519  0.59288753  0.91017664     0.24800
C1137       C  0.42162452  0.56402016  0.90804748    -0.23200
C1138       C  0.40216659  0.55271361  0.87079482     0.19700
F1139       F  0.39592072  0.52500785  0.86995241    -0.13200
F1140       F  0.36900428  0.55852478  0.80064415    -0.15500
F1141       F  0.44337811  0.60449173  0.94973061    -0.15500
F1142       F  0.41593596  0.63800909  0.87953430    -0.13200
C1143       C  0.28777640  0.68835938  0.66770564     0.24800
C1144       C  0.28991577  0.68251570  0.61070919    -0.23300
C1145       C  0.31468613  0.67057194  0.58943553     0.19700
C1146       C  0.33595073  0.66243047  0.62533112     0.24800
C1147       C  0.33168283  0.66415970  0.68302300    -0.23200
C1148       C  0.30929869  0.68066031  0.70301973     0.19700
F1149       F  0.31020249  0.69267253  0.75435977    -0.13200
F1150       F  0.26633979  0.70427193  0.68843407    -0.15500
F1151       F  0.36095567  0.65372978  0.60379367    -0.15500
F1152       F  0.31889203  0.66837660  0.53397242    -0.13200
C1153       C  0.05885181  0.93315319  0.77928026     0.24800
C1154       C  0.07898234  0.91673826  0.80721581    -0.23300
C1155       C  0.07412957  0.91166013  0.86343575     0.19700
C1156       C  0.05378354  0.92700532  0.89236333     0.24800
C1157       C  0.03887972  0.94852658  0.86642000    -0.23200
C1158       C  0.04064369  0.95066918  0.80898485     0.19700
F1159       F  0.02409615  0.96891173  0.78137858    -0.13200
F1160       F  0.05496814  0.93070590  0.72382224    -0.15500
F1161       F  0.04869189  0.92078597  0.94571190    -0.15500
F1162       F  0.08766858  0.89071788  0.88970510    -0.13200
C1163       C  0.16087790  0.80957517  0.61117931     0.24800
C1164       C  0.18986955  0.81169807  0.61962185    -0.23300
C1165       C  0.20079362  0.83412346  0.65100125     0.19700
C1166       C  0.18267322  0.85265789  0.67806524     0.24800
C1167       C  0.15354581  0.84762227  0.67773733    -0.23200
C1168       C  0.14282499  0.82814829  0.63852541     0.19700
F1169       F  0.11546671  0.82856769  0.62284626    -0.13200
F1170       F  0.15012783  0.78993206  0.57568314    -0.15500
F1171       F  0.19353535  0.87620976  0.70202884    -0.15500
F1172       F  0.22889063  0.83904358  0.65274540    -0.13200
C1173       C  0.29635184  0.83659110  0.37915270     0.24800
C1174       C  0.29765051  0.80789351  0.36607714    -0.23300
C1175       C  0.31495624  0.79775655  0.32356816     0.19700
C1176       C  0.33175714  0.81622427  0.29557981     0.24800
C1177       C  0.33285648  0.84473626  0.31239718    -0.23200
C1178       C  0.31282401  0.85503361  0.35057676     0.19700
F1179       F  0.30631462  0.88264149  0.35534406    -0.13200
F1180       F  0.27760418  0.84707271  0.41675450    -0.15500
F1181       F  0.34529764  0.80653334  0.24956606    -0.15500
F1182       F  0.31530607  0.77014453  0.30866757    -0.13200
C1183       C  0.44057238  0.93211093  0.13731639     0.24800
C1184       C  0.42407409  0.94843170  0.10163370    -0.23300
C1185       C  0.39534719  0.95213482  0.11243253     0.19700
C1186       C  0.38313947  0.93818980  0.15555856     0.24800
C1187       C  0.39853413  0.91759811  0.18339865    -0.23200
C1188       C  0.42783997  0.91744803  0.17909079     0.19700
F1189       F  0.44426946  0.90558422  0.21802738    -0.13200
F1190       F  0.46902688  0.93075905  0.13307525    -0.15500
F1191       F  0.35604777  0.94433234  0.16920819    -0.15500
F1192       F  0.37901569  0.96929759  0.08184754    -0.13200
C1193       C  0.18123548  0.66312968  0.31875630     0.24800
C1194       C  0.15189458  0.66666159  0.32013867    -0.23300
C1195       C  0.14040496  0.68737020  0.35581738     0.19700
C1196       C  0.15779895  0.70760068  0.37951699     0.24800
C1197       C  0.18690134  0.70658704  0.36945676    -0.23200
C1198       C  0.19848643  0.68409716  0.33915880     0.19700
F1199       F  0.22662106  0.68156191  0.33183209    -0.13200
F1200       F  0.19325771  0.63931025  0.29771760    -0.15500
F1201       F  0.14637518  0.72754253  0.41381284    -0.15500
F1202       F  0.11318387  0.68646251  0.37236531    -0.13200
C1203       C  0.10113918  0.57074179  0.15018553     0.24800
C1204       C  0.08781270  0.58969061  0.18758977    -0.23300
C1205       C  0.05981831  0.58416020  0.20275234     0.19700
C1206       C  0.04457838  0.56362744  0.17436349     0.24800
C1207       C  0.05648448  0.54960413  0.12851080    -0.23200
C1208       C  0.08521640  0.55240562  0.11793089     0.19700
F1209       F  0.09827973  0.53571025  0.07944433    -0.13200
F1210       F  0.12943752  0.56740084  0.14904254    -0.15500
F1211       F  0.01865669  0.55693115  0.19270990    -0.15500
F1212       F  0.04769931  0.59742656  0.24701519    -0.13200
C1213       C  0.60426545  0.11160767  0.21957503     0.31200
C1214       C  0.63398601  0.14799377  0.28400222     0.31300
C1215       C  0.63179263  0.12267847  0.19318739    -0.04900
C1216       C  0.58878650  0.13959565  0.23483155    -0.05700
C1217       C  0.61385880  0.10061737  0.27607882    -0.05600
C1218       C  0.64671586  0.14136336  0.22632916    -0.05000
C1219       C  0.60413327  0.15822023  0.26781994    -0.05700
C1220       C  0.62920136  0.11896398  0.30853998    -0.05600
C1221       C  0.66955304  0.15040043  0.19592258    -0.31000
N1222       N  0.66968404  0.13702697  0.14592161     0.15500
C1223       C  0.64607520  0.12106684  0.14283487    -0.31000
H1224       H  0.63980609  0.10941881  0.10604733     0.17400
C1225       C  0.58952607  0.18351636  0.26849451    -0.30000
N1226       N  0.56517433  0.18072051  0.23949638     0.14200
C1227       C  0.56487390  0.15405998  0.21760400    -0.30000
C1228       C  0.63601709  0.10519457  0.35681515    -0.30300
N1229       N  0.62455506  0.07898311  0.35523181     0.14700
H1230       H  0.64831551  0.11380291  0.39074189     0.17400
C1231       C  0.61096574  0.07619181  0.30563613    -0.30300
H1232       H  0.59939937  0.05781147  0.29214910     0.17400
H1233       H  0.54885448  0.14602316  0.18980658     0.17400
H1234       H  0.68514971  0.16557631  0.20893482     0.17400
H1235       H  0.59647484  0.20308570  0.28704648     0.17400
N1236       N  0.99184970  0.21123968  0.23560441    -0.35400
N1237       N  0.53620162  0.25382334  0.23648131    -0.55900
N1238       N  0.99343837  0.29803171  0.23665992    -0.35400
N1239       N  0.94915324  0.25558703  0.24525546    -0.55900
C1240       C  0.51496865  0.19554164  0.24727664     0.28200
C1241       C  0.96884477  0.19673951  0.25180040     0.28200
C1242       C  0.51696601  0.31298829  0.24901078     0.28200
C1243       C  0.97087117  0.31382262  0.25266068     0.28200
C1244       C  0.55154362  0.23045470  0.22365899     0.36800
C1245       C  0.55247645  0.27626263  0.22475659     0.36800
C1246       C  0.93242352  0.23309402  0.23528989     0.36800
C1247       C  0.93337995  0.27864520  0.23505540     0.36800
C1248       C  0.50648565  0.17094881  0.27151160    -0.20600
C1249       C  0.97752217  0.17169659  0.27430479    -0.20600
C1250       C  0.50912110  0.33839352  0.27357180    -0.20600
C1251       C  0.98014127  0.33895325  0.27563275    -0.20600
C1252       C  0.57745539  0.23816948  0.20289546    -0.21700
C1253       C  0.57804408  0.26705470  0.20359699    -0.21700
C1254       C  0.90610266  0.24188325  0.21829265    -0.21700
C1255       C  0.90674882  0.27068679  0.21793915    -0.21700
C1256       C  0.54343023  0.20239848  0.23500783    -0.17100
C1257       C  0.94017962  0.20484238  0.24434368    -0.17100
C1258       C  0.94210458  0.30676242  0.24465650    -0.17000
C1259       C  0.54522951  0.30483042  0.23652340    -0.17000
H1260       H  0.51971642  0.15422349  0.28631242     0.15900
H1261       H  0.96439541  0.15566526  0.29157886     0.15900
H1262       H  0.52279291  0.35485333  0.28889273     0.15900
H1263       H  0.96736377  0.35591144  0.29254098     0.15900
H1264       H  0.59430854  0.22442077  0.18896497     0.14100
H1265       H  0.59539457  0.27977925  0.19015865     0.14100
H1266       H  0.88833386  0.22893315  0.20688544     0.14100
H1267       H  0.88961198  0.28418353  0.20592188     0.14100
H1268       H  0.99163536  0.22953609  0.21303711     0.27400
H1269       H  0.99267278  0.27936601  0.21361093     0.27400
C1270       C  0.85153872  0.36414046  0.28180659     0.31200
C1271       C  0.88313024  0.39718010  0.21792935     0.31300
C1272       C  0.83901105  0.37048215  0.22441261    -0.04900
C1273       C  0.85858547  0.39340855  0.30773803    -0.05700
C1274       C  0.88134033  0.35263979  0.26809826    -0.05600
C1275       C  0.85529707  0.38694208  0.19165564    -0.05000
C1276       C  0.87450519  0.41017715  0.27422978    -0.05700
C1277       C  0.89728596  0.36902528  0.23350407    -0.05600
C1278       C  0.84147480  0.38921232  0.14121939    -0.31000
N1279       N  0.81666823  0.37522220  0.14278114     0.15500
C1280       C  0.81519501  0.36335198  0.19366156    -0.31000
H1281       H  0.79795638  0.35060800  0.20761847     0.17400
C1282       C  0.88207034  0.43379690  0.30495104    -0.30000
N1283       N  0.87102311  0.43231048  0.35676498     0.14200
C1284       C  0.85744744  0.40725661  0.35926484    -0.30000
C1285       C  0.92109879  0.35324459  0.21974684    -0.30300
N1286       N  0.92094169  0.32892920  0.24807864     0.14700
H1287       H  0.93696238  0.35834000  0.18964167     0.17400
C1288       C  0.89688890  0.32865474  0.27845149    -0.30300
H1289       H  0.89079413  0.31174935  0.30489976     0.17400
H1290       H  0.84811426  0.39941538  0.39657878     0.17400
H1291       H  0.84868870  0.40073363  0.10599748     0.17400
H1292       H  0.89532165  0.45056244  0.29090536     0.17400
N1293       N  0.62354852  0.00656079  0.41315965    -0.35400
N1294       N  0.62701170  0.05082334  0.50016205    -0.55900
N1295       N  0.62261636  0.00725616  0.58468784    -0.35400
N1296       N  0.62481437  0.46304227  0.49764990    -0.55900
C1297       C  0.63061925  0.02927686  0.38321648     0.28200
C1298       C  0.62932551  0.48317449  0.38174245     0.28200
C1299       C  0.62908885  0.03036962  0.61627169     0.28200
C1300       C  0.62849403  0.48416268  0.61492107     0.28200
C1301       C  0.62132066  0.06655975  0.45518913     0.36800
C1302       C  0.62097564  0.06701964  0.54581033     0.36800
C1303       C  0.61824302  0.44728328  0.45184253     0.36800
C1304       C  0.61859883  0.44742675  0.54243372     0.36800
C1305       C  0.64147797  0.02010960  0.33267282    -0.20600
C1306       C  0.64063631  0.49118611  0.33173281    -0.20600
C1307       C  0.63931254  0.02175682  0.66681968    -0.20600
C1308       C  0.63898879  0.49283988  0.66593370    -0.20600
C1309       C  0.61145705  0.09267281  0.47263251    -0.21700
C1310       C  0.61132558  0.09298181  0.52959748    -0.21700
C1311       C  0.60749499  0.42179418  0.46787584    -0.21700
C1312       C  0.60782009  0.42184862  0.52483984    -0.21700
C1313       C  0.62568537  0.05800451  0.39867863    -0.17100
C1314       C  0.62316457  0.45492453  0.39578837    -0.17100
C1315       C  0.62341350  0.45551764  0.59894283    -0.17000
C1316       C  0.62479037  0.05905007  0.60196567    -0.17000
H1317       H  0.64920733  0.03290265  0.29964948     0.15900
H1318       H  0.64761727  0.47763210  0.29790560     0.15900
H1319       H  0.64657485  0.03491334  0.70088054     0.15900
H1320       H  0.64597239  0.47972748  0.69918627     0.15900
H1321       H  0.60440182  0.10967298  0.44723589     0.14100
H1322       H  0.60423733  0.11024262  0.55589463     0.14100
H1323       H  0.59983832  0.40490240  0.44148058     0.14100
H1324       H  0.60044492  0.40505104  0.55025072     0.14100
H1325       H  0.61251168  0.00707902  0.45029509     0.27400
H1326       H  0.61219831  0.00733911  0.54688470     0.27400
N1327       N  0.87437915  0.00552099  0.41780805    -0.35400
N1328       N  0.87376323  0.46219179  0.50201972    -0.55900
N1329       N  0.87602000  0.00572832  0.58945341    -0.35400
N1330       N  0.87100947  0.04903706  0.50508155    -0.55900
C1331       C  0.86749422  0.48242874  0.38678242     0.28200
C1332       C  0.86734214  0.02841177  0.38824257     0.28200
C1333       C  0.87020432  0.48265236  0.61915504     0.28200
C1334       C  0.86826870  0.02847836  0.62074875     0.28200
C1335       C  0.87880661  0.44610143  0.45590804     0.36800
C1336       C  0.88037056  0.44635667  0.54623090     0.36800
C1337       C  0.87620834  0.06521294  0.46069946     0.36800
C1338       C  0.87596097  0.06521239  0.55102534     0.36800
C1339       C  0.85573260  0.49090194  0.33735946    -0.20600
C1340       C  0.85577934  0.01975003  0.33817644    -0.20600
C1341       C  0.85859856  0.49095442  0.66959918    -0.20600
C1342       C  0.85747025  0.01976169  0.67063240    -0.20600
C1343       C  0.88902063  0.42016016  0.47104694    -0.21700
C1344       C  0.88999671  0.42032005  0.52800240    -0.21700
C1345       C  0.88468614  0.09160180  0.47876570    -0.21700
C1346       C  0.88442146  0.09161617  0.53571739    -0.21700
C1347       C  0.87275703  0.45394588  0.40056783    -0.17100
C1348       C  0.87198242  0.05692260  0.40422390    -0.17100
C1349       C  0.87163858  0.05697150  0.60662362    -0.17000
C1350       C  0.87580921  0.45433780  0.60273052    -0.17000
H1351       H  0.84759567  0.47777380  0.30407633     0.15900
H1352       H  0.84773270  0.03280651  0.30573880     0.15900
H1353       H  0.85113123  0.47773141  0.70214591     0.15900
H1354       H  0.84913558  0.03275738  0.70408451     0.15900
H1355       H  0.89528740  0.40287993  0.44397337     0.14100
H1356       H  0.89701929  0.40315884  0.55306621     0.14100
H1357       H  0.89073742  0.10904699  0.45371136     0.14100
H1358       H  0.89022456  0.10900557  0.56273892     0.14100
H1359       H  0.88574918  0.00568327  0.45453837     0.27400
H1360       H  0.88697943  0.00603890  0.55224310     0.27400
C1361       C  0.60043796  0.39943972  0.77531549     0.31200
C1362       C  0.63437426  0.36524478  0.71394938     0.31300
C1363       C  0.62894859  0.39158741  0.80372135    -0.04900
C1364       C  0.58799723  0.37062455  0.75914661    -0.05700
C1365       C  0.61059187  0.41145489  0.71954512    -0.05600
C1366       C  0.64588057  0.37347542  0.77245087    -0.05000
C1367       C  0.60524117  0.35282543  0.72869352    -0.05700
C1368       C  0.62745021  0.39378231  0.68797439    -0.05600
C1369       C  0.66933515  0.36724128  0.80461153    -0.31000
N1370       N  0.66823905  0.38198289  0.85352905     0.15500
C1371       C  0.64360297  0.39701444  0.85318359    -0.31000
H1372       H  0.63687832  0.41106327  0.88641639     0.17400
C1373       C  0.59125507  0.32714843  0.72504936    -0.30000
N1374       N  0.56554692  0.32944105  0.74988507     0.14200
C1375       C  0.56374037  0.35597916  0.77170227    -0.30000
C1376       C  0.63444495  0.40799849  0.64010606    -0.30300
N1377       N  0.62249054  0.43413447  0.64181687     0.14700
H1378       H  0.64750173  0.39988217  0.60668766     0.17400
C1379       C  0.60860251  0.43649671  0.69107805    -0.30300
H1380       H  0.59774624  0.45529772  0.70519867     0.17400
H1381       H  0.54621831  0.36399177  0.79597967     0.17400
H1382       H  0.68614119  0.35286078  0.79328936     0.17400
H1383       H  0.59929933  0.30791928  0.70641283     0.17400
N1384       N  0.53592908  0.25636359  0.75307579    -0.35400
N1385       N  0.99237358  0.29978169  0.75149944    -0.55900
N1386       N  0.94891705  0.25608019  0.74498257    -0.35400
N1387       N  0.99236612  0.21278745  0.75646259    -0.55900
C1388       C  0.55117906  0.27979814  0.76501023     0.28200
C1389       C  0.55104233  0.23379231  0.76975837     0.28200
C1390       C  0.93324945  0.27928262  0.75726707     0.28200
C1391       C  0.93324926  0.23335316  0.75737560     0.28200
C1392       C  0.51530962  0.31535431  0.73933135     0.36800
C1393       C  0.96940837  0.31519151  0.73781323     0.36800
C1394       C  0.51574241  0.19674149  0.74796128     0.36800
C1395       C  0.96994010  0.19680118  0.74135817     0.36800
C1396       C  0.57610358  0.27198730  0.79015286    -0.20600
C1397       C  0.57600838  0.24310241  0.79318629    -0.20600
C1398       C  0.90749200  0.27119282  0.77815491    -0.20600
C1399       C  0.90750374  0.24229989  0.77833201    -0.20600
C1400       C  0.50674018  0.34050825  0.71706533    -0.21700
C1401       C  0.97778260  0.34047060  0.71651444    -0.21700
C1402       C  0.50808046  0.17064773  0.72692885    -0.21700
C1403       C  0.97922114  0.17071461  0.72263472    -0.21700
C1404       C  0.54373131  0.30785456  0.75127930    -0.17100
C1405       C  0.54382232  0.20498991  0.76066193    -0.17100
C1406       C  0.94115286  0.20482141  0.74775471    -0.17000
C1407       C  0.94096517  0.30746592  0.74722966    -0.17000
H1408       H  0.59268140  0.28565756  0.80494491     0.15900
H1409       H  0.59256872  0.23040311  0.81053244     0.15900
H1410       H  0.89041529  0.28467822  0.79201175     0.15900
H1411       H  0.89046726  0.22943676  0.79270332     0.15900
H1412       H  0.51987345  0.35720650  0.70243370     0.14100
H1413       H  0.96442073  0.35707293  0.70159090     0.14100
H1414       H  0.52179433  0.15341193  0.71495450     0.14100
H1415       H  0.96658080  0.15350428  0.70702331     0.14100
H1416       H  0.51768613  0.25559556  0.72934714     0.27400
H1417       H  0.96804995  0.25569537  0.72405654     0.27400
C1418       C  0.84965796  0.14715831  0.72166945     0.31200
C1419       C  0.88327831  0.11608376  0.78720013     0.31300
C1420       C  0.85768991  0.11761772  0.69817165    -0.04900
C1421       C  0.87863491  0.16023404  0.73592930    -0.05700
C1422       C  0.83725424  0.14012781  0.77952658    -0.05600
C1423       C  0.87580235  0.10233142  0.73056626    -0.05000
C1424       C  0.89589231  0.14426910  0.76939397    -0.05700
C1425       C  0.85486611  0.12459546  0.81225206    -0.05600
C1426       C  0.88381717  0.07875266  0.69946767    -0.31000
N1427       N  0.86968685  0.07839675  0.65047507     0.15500
C1428       C  0.85322450  0.10174645  0.64997997    -0.31000
H1429       H  0.83927914  0.10682394  0.61631709     0.17400
C1430       C  0.92105415  0.15857303  0.77507809    -0.30000
N1431       N  0.91945855  0.18319180  0.74785945     0.14200
C1432       C  0.89360032  0.18416354  0.72321862    -0.30000
C1433       C  0.84147603  0.11993318  0.86202751    -0.30300
N1434       N  0.81572891  0.13218372  0.86131080     0.14700
H1435       H  0.84978930  0.10810928  0.89605787     0.17400
C1436       C  0.81263383  0.14379155  0.81054279    -0.30300
H1437       H  0.79334238  0.15352843  0.79716626     0.17400
H1438       H  0.88618253  0.20101939  0.69776552     0.17400
H1439       H  0.89898637  0.06304877  0.71146937     0.17400
H1440       H  0.93940997  0.15158176  0.79733296     0.17400
N1441       N  0.74345209  0.37556611  0.08381106    -0.35400
N1442       N  0.78654063  0.37891585  0.99875540    -0.55900
N1443       N  0.74189813  0.37895962  0.91246920    -0.35400
N1444       N  0.69885823  0.38116326  0.99815463    -0.55900
C1445       C  0.76660359  0.38109905  0.11513754     0.28200
C1446       C  0.72060470  0.38265988  0.11480449     0.28200
C1447       C  0.76513528  0.38554026  0.88256905     0.28200
C1448       C  0.71875343  0.38593769  0.88220919     0.28200
C1449       C  0.80270687  0.37174138  0.04282037     0.36800
C1450       C  0.80215583  0.37386607  0.95239733     0.36800
C1451       C  0.68327912  0.37499817  0.04340611     0.36800
C1452       C  0.68210070  0.37691302  0.95303664     0.36800
C1453       C  0.75827156  0.39217305  0.16608742    -0.20600
C1454       C  0.72933861  0.39310480  0.16588887    -0.20600
C1455       C  0.75650917  0.39708935  0.83318241    -0.20600
C1456       C  0.72747834  0.39712577  0.83280846    -0.20600
C1457       C  0.82852579  0.36189718  0.02422065    -0.21700
C1458       C  0.82817888  0.36320200  0.96732283    -0.21700
C1459       C  0.65668908  0.36664899  0.02670444    -0.21700
C1460       C  0.65589524  0.36798008  0.96981988    -0.21700
C1461       C  0.79496027  0.37537783  0.09968697    -0.17100
C1462       C  0.69205384  0.37836776  0.09975023    -0.17100
C1463       C  0.68994240  0.38166349  0.89702604    -0.17000
C1464       C  0.79385481  0.37996334  0.89700558    -0.17000
H1465       H  0.77155778  0.39918531  0.19990965     0.15900
H1466       H  0.71624321  0.40081275  0.19957762     0.15900
H1467       H  0.76968873  0.40489428  0.80056732     0.15900
H1468       H  0.71430185  0.40489719  0.80001733     0.15900
H1469       H  0.84578198  0.35427718  0.04894156     0.14100
H1470       H  0.84514780  0.35664309  0.94011063     0.14100
H1471       H  0.63966799  0.35990085  0.05270416     0.14100
H1472       H  0.63814405  0.36253288  0.94384074     0.14100
H1473       H  0.74307785  0.36486818  0.04588036     0.27400
H1474       H  0.74192220  0.36780597  0.94881037     0.27400
N1475       N  0.74392225  0.13888701  0.09185512    -0.35400
N1476       N  0.70024482  0.13557633  0.00462547    -0.55900
N1477       N  0.74358220  0.13420939  0.92104443    -0.35400
N1478       N  0.78752947  0.13280311  0.00739889    -0.55900
C1479       C  0.72033121  0.13292078  0.12108238     0.28200
C1480       C  0.76657665  0.13161143  0.12304282     0.28200
C1481       C  0.72063882  0.12689053  0.89062961     0.28200
C1482       C  0.76657778  0.12609756  0.89159430     0.28200
C1483       C  0.68435319  0.14287753  0.04911806     0.36800
C1484       C  0.68421660  0.14026030  0.95936750     0.36800
C1485       C  0.80369411  0.13897413  0.05252836     0.36800
C1486       C  0.80330686  0.13786406  0.96177852     0.36800
C1487       C  0.72814743  0.12167930  0.17117617    -0.20600
C1488       C  0.75714559  0.12084918  0.17240716    -0.20600
C1489       C  0.72917880  0.11367260  0.84185273    -0.20600
C1490       C  0.75811755  0.11309835  0.84251089    -0.20600
C1491       C  0.65831646  0.15254555  0.03209287    -0.21700
C1492       C  0.65823976  0.15092788  0.97520933    -0.21700
C1493       C  0.82975738  0.14819189  0.03539584    -0.21700
C1494       C  0.82946436  0.14767390  0.97825424    -0.21700
C1495       C  0.69193636  0.13821709  0.10475404    -0.17100
C1496       C  0.79550555  0.13518753  0.10880536    -0.17100
C1497       C  0.79491530  0.13214604  0.90574018    -0.17000
C1498       C  0.69227432  0.13328858  0.90430582    -0.17000
H1499       H  0.71441287  0.11433736  0.20333686     0.15900
H1500       H  0.76975635  0.11270457  0.20565828     0.15900
H1501       H  0.71596058  0.10530843  0.80907790     0.15900
H1502       H  0.77140018  0.10417464  0.81024341     0.15900
H1503       H  0.64105377  0.15975800  0.05797944     0.14100
H1504       H  0.64097119  0.15682785  0.94872779     0.14100
H1505       H  0.84710314  0.15494723  0.06129124     0.14100
H1506       H  0.84662552  0.15396830  0.95204263     0.14100
H1507       H  0.74447547  0.14961692  0.05488896     0.27400
H1508       H  0.74373613  0.14691819  0.95660873     0.27400
C1509       C  0.88441652  0.39880943  0.78260285     0.31200
C1510       C  0.85085316  0.36722389  0.71591853     0.31300
C1511       C  0.85502312  0.39185071  0.80697688    -0.04900
C1512       C  0.87792098  0.41106616  0.72567410    -0.05700
C1513       C  0.89596149  0.36917699  0.76770803    -0.05600
C1514       C  0.83795597  0.37599949  0.77227189    -0.05000
C1515       C  0.86115987  0.39497618  0.69131564    -0.05700
C1516       C  0.87925938  0.35319662  0.73214432    -0.05600
C1517       C  0.81380487  0.36961951  0.80159333    -0.31000
N1518       N  0.81542738  0.38110735  0.85368543     0.15500
C1519       C  0.84092495  0.39400098  0.85759763    -0.31000
H1520       H  0.84889299  0.40365729  0.89528609     0.17400
C1521       C  0.86004395  0.40846481  0.64094491    -0.30000
N1522       N  0.87477434  0.43279493  0.64461049     0.14200
C1523       C  0.88621019  0.43423830  0.69628398    -0.30000
C1524       C  0.89458146  0.32891787  0.71936333    -0.30300
N1525       N  0.91921185  0.32916092  0.74826440     0.14700
H1526       H  0.88858651  0.31242375  0.69035915     0.17400
C1527       C  0.91996258  0.35355228  0.77842649    -0.30300
H1528       H  0.93701771  0.35960832  0.80570884     0.17400
H1529       H  0.89957489  0.45099000  0.71152778     0.17400
H1530       H  0.79659250  0.35686055  0.78641911     0.17400
H1531       H  0.84918555  0.40123123  0.60406046     0.17400
C1532       C  0.88460298  0.11258195  0.22491760     0.31200
C1533       C  0.85235517  0.14568225  0.29256258     0.31300
C1534       C  0.87756837  0.10056357  0.28175128    -0.04900
C1535       C  0.89711547  0.14178331  0.23955589    -0.05700
C1536       C  0.85559568  0.12112976  0.20068907    -0.05600
C1537       C  0.86105759  0.11721180  0.31556007    -0.05000
C1538       C  0.88088601  0.15875061  0.27496697    -0.05700
C1539       C  0.83916762  0.13815452  0.23506677    -0.05600
C1540       C  0.85704853  0.10305000  0.36438963    -0.31000
N1541       N  0.87124814  0.07819856  0.36164952     0.15500
C1542       C  0.88397679  0.07663656  0.31100198    -0.31000
H1543       H  0.89703058  0.05935580  0.29641037     0.17400
C1544       C  0.89445927  0.18457344  0.27854181    -0.30000
N1545       N  0.91837450  0.18352801  0.24740863     0.14200
C1546       C  0.91918152  0.15806820  0.22128151    -0.30000
C1547       C  0.81574642  0.14596699  0.20415690    -0.30300
N1548       N  0.81701479  0.13370447  0.15246232     0.14700
H1549       H  0.79910265  0.15994212  0.21821686     0.17400
C1550       C  0.84165748  0.11888755  0.15001644    -0.30300
H1551       H  0.84908052  0.10737572  0.11375449     0.17400
H1552       H  0.93456240  0.15226300  0.19006447     0.17400
H1553       H  0.84458553  0.11034936  0.39935850     0.17400
H1554       H  0.88725635  0.20310405  0.30095797     0.17400
C1555       C  0.63556795  0.14985273  0.72584200     0.31200
C1556       C  0.60412320  0.11404428  0.78415545     0.31300
C1557       C  0.64851973  0.14074382  0.78131321    -0.04900
C1558       C  0.60614092  0.16066279  0.74215130    -0.05700
C1559       C  0.62973422  0.12105726  0.69623973    -0.05600
C1560       C  0.63197703  0.12330184  0.81205878    -0.05000
C1561       C  0.58983492  0.14287361  0.77285517    -0.05700
C1562       C  0.61322039  0.10321524  0.72630306    -0.05600
C1563       C  0.64592171  0.11921881  0.86183552    -0.31000
N1564       N  0.67113852  0.13249116  0.86074698     0.15500
C1565       C  0.67312510  0.14512467  0.81113422    -0.31000
H1566       H  0.69126767  0.15682159  0.79805823     0.17400
C1567       C  0.56534637  0.15805540  0.78593704    -0.30000
N1568       N  0.56606480  0.18364066  0.76152800     0.14200
C1569       C  0.59118849  0.18525967  0.73503295    -0.30000
C1570       C  0.60948127  0.07883321  0.69489780    -0.30300
N1571       N  0.62383183  0.08065647  0.64632814     0.14700
H1572       H  0.59711616  0.06098313  0.70676857     0.17400
C1573       C  0.63667113  0.10629591  0.64733966    -0.30300
H1574       H  0.65031401  0.11359571  0.61496755     0.17400
H1575       H  0.59810790  0.20304847  0.71176610     0.17400
H1576       H  0.63840555  0.10731143  0.89632556     0.17400
H1577       H  0.54827392  0.15121689  0.81179728     0.17400
C1578       C  0.63510119  0.36320397  0.27993147     0.31200
C1579       C  0.60249414  0.39568609  0.21601394     0.31300
C1580       C  0.64789829  0.37050580  0.22300810    -0.04900
C1581       C  0.60655658  0.34997497  0.26246622    -0.05700
C1582       C  0.62677381  0.39203735  0.30563851    -0.05600
C1583       C  0.63181184  0.38827486  0.19202959    -0.05000
C1584       C  0.58996330  0.36695600  0.23011793    -0.05700
C1585       C  0.61033586  0.40909225  0.27324906    -0.05600
C1586       C  0.64697673  0.39404851  0.14457058    -0.31000
N1587       N  0.67098545  0.37859562  0.14363486     0.15500
C1588       C  0.67171993  0.36399748  0.19150403    -0.31000
H1589       H  0.68843198  0.34974257  0.20269429     0.17400
C1590       C  0.56595938  0.35204563  0.21592656    -0.30000
N1591       N  0.56728591  0.32615165  0.23840383     0.14200
C1592       C  0.59239476  0.32450242  0.26553132    -0.30000
C1593       C  0.60846594  0.43482135  0.30214373    -0.30300
N1594       N  0.62198032  0.43318181  0.35185471     0.14700
H1595       H  0.59874320  0.45379990  0.28778136     0.17400
C1596       C  0.63364509  0.40710137  0.35351222    -0.30300
H1597       H  0.64667725  0.39967166  0.38685909     0.17400
H1598       H  0.59984929  0.30582569  0.28536255     0.17400
H1599       H  0.64087770  0.40823789  0.11240666     0.17400
H1600       H  0.54879528  0.35952298  0.19075531     0.17400
O1601       O  0.52127430  0.01577779  0.11423956    -0.78900
O1602       O  0.96602625  0.05207775  0.93848655    -0.78900
O1603       O  0.55362916  0.01634212  0.94072943    -0.78900
O1604       O  0.94510756  0.03152026  0.04686138    -0.78900
O1605       O  0.52178414  0.04872682  0.93818323    -0.79000
O1606       O  0.96637477  0.01534495  0.11762290    -0.78900
O1607       O  0.93297714  0.02129347  0.95013889    -0.78900
O1608       O  0.54486342  0.02880893  0.04314344    -0.78900
C1609       C  0.53987311  0.03073962  0.09365201     1.10800
C1610       C  0.94058533  0.04544200  0.93594149     1.10700
C1611       C  0.54565275  0.04011857  0.92464843     1.10800
C1612       C  0.94932702  0.03220658  0.09723915     1.10700
O1613       O  0.96422000  0.46294163  0.05299310    -0.78900
O1614       O  0.51867813  0.49382512  0.88130460    -0.79000
O1615       O  0.56385160  0.47672986  0.02146135    -0.78900
O1616       O  0.96336237  0.46774443  0.95043169    -0.78900
O1617       O  0.96328245  0.49741976  0.88352811    -0.78900
O1618       O  0.52272018  0.46223904  0.05244200    -0.78900
O1619       O  0.92343616  0.48051083  0.02782687    -0.78900
O1620       O  0.52028129  0.46569265  0.95033833    -0.78900
Co1621     Co  0.99370572  0.99104864  0.07669478     1.51500
Co1622     Co  0.99259834  0.02304085  0.91528453     1.51700
Co1623     Co  0.53145032  0.99700961  0.99924429     1.51600
Co1624     Co  0.95581741  0.99900779  0.00241838     1.51500
O1625       O  0.99363365  0.01263210  0.99704877    -1.40800
C1626       C  0.93749762  0.46460446  0.05900581     1.10700
C1627       C  0.52398426  0.46979748  0.90001654     1.10800
C1628       C  0.54960331  0.46252739  0.05517065     1.10800
C1629       C  0.95773972  0.47345973  0.90148388     1.10700
O1630       O  0.73021493  0.22952368  0.38728455    -0.78900
O1631       O  0.73178196  0.28561033  0.61153042    -0.78900
O1632       O  0.69797408  0.22970814  0.55745396    -0.78900
O1633       O  0.72552144  0.32350496  0.46078684    -0.78900
O1634       O  0.72860008  0.23048786  0.62442362    -0.79000
O1635       O  0.71742785  0.28309758  0.41586055    -0.78900
O1636       O  0.70424089  0.28908586  0.53818444    -0.78900
O1637       O  0.69887680  0.22988559  0.45081117    -0.78900
C1638       C  0.70555120  0.22417162  0.40214817     1.10800
C1639       C  0.70897929  0.29358734  0.58892479     1.10700
C1640       C  0.70386379  0.22563202  0.60671710     1.10800
C1641       C  0.71274936  0.30951743  0.42371657     1.10700
O1642       O  0.76675186  0.26975933  0.36639208    -0.78900
O1643       O  0.78259489  0.22364444  0.56747614    -0.79000
O1644       O  0.75222111  0.19636578  0.45137010    -0.78900
O1645       O  0.75888457  0.31279182  0.54576645    -0.78900
O1646       O  0.78709543  0.27821550  0.55792563    -0.78900
O1647       O  0.78275292  0.23085743  0.44182995    -0.78900
O1648       O  0.77317794  0.29429366  0.44465690    -0.78900
O1649       O  0.74797887  0.19359250  0.56150701    -0.78900
Co1650     Co  0.75177555  0.25722560  0.43290793     1.51500
Co1651     Co  0.75783804  0.25438796  0.58716632     1.51700
Co1652     Co  0.72415488  0.21384531  0.50501684     1.51600
Co1653     Co  0.73721718  0.28964267  0.49099239     1.51500
O1654       O  0.74300332  0.25036389  0.51090149    -1.40800
C1655       C  0.77849866  0.28954878  0.39313353     1.10700
C1656       C  0.77308752  0.19971405  0.57510069     1.10800
C1657       C  0.77676755  0.20505420  0.43873823     1.10800
C1658       C  0.78161401  0.30360668  0.56507087     1.10700
C1659       C  0.58518669  0.40243040  0.11957835     0.24800
C1660       C  0.58458692  0.41103369  0.17578450    -0.23300
C1661       C  0.56734865  0.43362302  0.19168550     0.19700
C1662       C  0.55648877  0.45078550  0.15157089     0.24800
C1663       C  0.56265747  0.44530679  0.09563995    -0.23200
C1664       C  0.57640424  0.42063253  0.07951379     0.19700
F1665       F  0.58084944  0.41377443  0.02557239    -0.13200
F1666       F  0.59529121  0.37686768  0.10342336    -0.15500
F1667       F  0.53947656  0.47236247  0.16738519    -0.15500
F1668       F  0.55842929  0.43735571  0.24453164    -0.13200
C1669       C  0.64507759  0.32928170  0.35740462     0.24800
C1670       C  0.65475913  0.34821622  0.31782425    -0.23300
C1671       C  0.68279363  0.35770372  0.32171739     0.19700
C1672       C  0.70165577  0.34474285  0.35615138     0.24800
C1673       C  0.69255123  0.32330941  0.38962227    -0.23200
C1674       C  0.66419340  0.31601116  0.39163301     0.19700
F1675       F  0.65489136  0.29734079  0.42892535    -0.13200
F1676       F  0.61733968  0.32595802  0.36780296    -0.15500
F1677       F  0.72885238  0.35318287  0.35687373    -0.15500
F1678       F  0.69166743  0.38071288  0.29490797    -0.13200
C1679       C  0.68410303  0.21071284  0.69604096     0.24800
C1680       C  0.68342246  0.21023049  0.63841994    -0.23300
C1681       C  0.66339075  0.19351155  0.61011650     0.19700
C1682       C  0.64719390  0.17485427  0.63883468     0.24800
C1683       C  0.65141471  0.17184420  0.69565922    -0.23200
C1684       C  0.66653470  0.19301243  0.72460747     0.19700
F1685       F  0.66299795  0.19794997  0.77965661    -0.13200
F1686       F  0.70120900  0.22858955  0.72447523    -0.15500
F1687       F  0.62660078  0.16077306  0.61129079    -0.15500
F1688       F  0.66008267  0.19418397  0.55432595    -0.13200
C1689       C  0.55924443  0.09043897  0.81245110     0.24800
C1690       C  0.58856816  0.09196299  0.81456242    -0.23300
C1691       C  0.60348198  0.07013992  0.84042205     0.19700
C1692       C  0.58975723  0.05294493  0.87706388     0.24800
C1693       C  0.56073849  0.05567875  0.88350471    -0.23200
C1694       C  0.54532939  0.07282247  0.84760783     0.19700
F1695       F  0.51678411  0.07210361  0.84553223    -0.13200
F1696       F  0.54414237  0.10421446  0.77397050    -0.15500
F1697       F  0.60475825  0.03418991  0.90659095    -0.15500
F1698       F  0.63113475  0.06525060  0.82987914    -0.13200
C1699       C  0.93165314  0.09232102  0.19211656     0.24800
C1700       C  0.90196219  0.09188962  0.19107190    -0.23300
C1701       C  0.88865016  0.06854789  0.16568528     0.19700
C1702       C  0.90423868  0.04903827  0.13492133     0.24800
C1703       C  0.93339816  0.05174822  0.13142312    -0.23200
C1704       C  0.94698318  0.07346683  0.15958298     0.19700
F1705       F  0.97503118  0.07690754  0.15432619    -0.13200
F1706       F  0.94620651  0.10886130  0.22806207    -0.15500
F1707       F  0.89095122  0.02733550  0.10897551    -0.15500
F1708       F  0.86083195  0.06366812  0.17309360    -0.13200
C1709       C  0.80568368  0.15089413  0.34067524     0.24800
C1710       C  0.83341245  0.16072235  0.33395879    -0.23300
C1711       C  0.84412887  0.17907944  0.37533618     0.19700
C1712       C  0.82587768  0.19268489  0.41231966     0.24800
C1713       C  0.79719770  0.18603075  0.41217279    -0.23200
C1714       C  0.78794276  0.16311873  0.38009323     0.19700
F1715       F  0.76172830  0.15263865  0.38630426    -0.11000
F1716       F  0.79605305  0.12846444  0.31093898    -0.15500
F1717       F  0.83631837  0.21169391  0.44949762    -0.15500
F1718       F  0.87211316  0.18215722  0.38356957    -0.13200
C1719       C  0.82899156  0.32150917  0.68414057     0.24800
C1720       C  0.83069068  0.35069597  0.68022678    -0.23300
C1721       C  0.81109624  0.36440728  0.64620149     0.19700
C1722       C  0.79616012  0.34928564  0.60638197     0.24800
C1723       C  0.79828916  0.32005083  0.60429279    -0.23200
C1724       C  0.81358981  0.30620559  0.64548796     0.19700
F1725       F  0.81259917  0.27792573  0.65026566    -0.13200
F1726       F  0.84043956  0.30791045  0.72741868    -0.15500
F1727       F  0.77937897  0.36318679  0.57066331    -0.15500
F1728       F  0.80529355  0.39213400  0.65310667    -0.13200
C1729       C  0.95042225  0.43746310  0.82848908     0.24800
C1730       C  0.93973287  0.45487401  0.87042908    -0.23300
C1731       C  0.91094033  0.45578291  0.88141776     0.19700
C1732       C  0.89287573  0.43869504  0.85143589     0.24800
C1733       C  0.90373932  0.41797771  0.81477342    -0.23200
C1734       C  0.93248260  0.41942056  0.79997826     0.19700
F1735       F  0.94288019  0.40505264  0.75535501    -0.13200
F1736       F  0.97799378  0.43823177  0.81462627    -0.15500
F1737       F  0.86508896  0.44497207  0.85380249    -0.15500
F1738       F  0.90011261  0.47416674  0.91952027    -0.13200
C1739       C  0.89007076  0.06963810  0.83178918     0.24800
C1740       C  0.89843414  0.09790779  0.82742005    -0.23300
C1741       C  0.91417545  0.10991710  0.87127429     0.19700
C1742       C  0.92650662  0.09288828  0.91017455     0.24800
C1743       C  0.92162550  0.06402095  0.90804711    -0.23200
C1744       C  0.90216678  0.05271429  0.87079616     0.19700
F1745       F  0.89592025  0.02500871  0.86995567    -0.13200
F1746       F  0.86900409  0.05852500  0.80064595    -0.15500
F1747       F  0.94338052  0.10449274  0.94972657    -0.15500
F1748       F  0.91593672  0.13800960  0.87953175    -0.13200
C1749       C  0.78777811  0.18836070  0.66770341     0.24800
C1750       C  0.78991652  0.18251616  0.61070714    -0.23300
C1751       C  0.81468613  0.17057106  0.58943285     0.19700
C1752       C  0.83595076  0.16242903  0.62532799     0.24800
C1753       C  0.83168339  0.16415891  0.68302006    -0.23200
C1754       C  0.80930026  0.18066079  0.70301701     0.19700
F1755       F  0.81020490  0.19267307  0.75435693    -0.13200
F1756       F  0.76634260  0.20427466  0.68843205    -0.15500
F1757       F  0.86095530  0.15372751  0.60378995    -0.15500
F1758       F  0.81889132  0.16837493  0.53396962    -0.13200
C1759       C  0.55885087  0.43315267  0.77928126     0.24800
C1760       C  0.57898142  0.41673785  0.80721689    -0.23300
C1761       C  0.57412859  0.41165964  0.86343679     0.19700
C1762       C  0.55378285  0.42700514  0.89236450     0.24800
C1763       C  0.53887915  0.44852646  0.86642107    -0.23200
C1764       C  0.54064295  0.45066885  0.80898584     0.19700
F1765       F  0.52409563  0.46891159  0.78137960    -0.13200
F1766       F  0.55496723  0.43070530  0.72382321    -0.15500
F1767       F  0.54869154  0.42078622  0.94571341    -0.15500
F1768       F  0.58766728  0.39071710  0.88970595    -0.13200
C1769       C  0.66087787  0.30957584  0.61118049     0.24800
C1770       C  0.68986951  0.31169810  0.61962394    -0.23300
C1771       C  0.70079377  0.33412316  0.65100414     0.19700
C1772       C  0.68267353  0.35265789  0.67806782     0.24800
C1773       C  0.65354598  0.34762305  0.67773845    -0.23200
C1774       C  0.64282516  0.32814948  0.63852574     0.19700
F1775       F  0.61546705  0.32856959  0.62284545    -0.13200
F1776       F  0.65012760  0.28993281  0.57568440    -0.15500
F1777       F  0.69353606  0.37620928  0.70203252    -0.15500
F1778       F  0.72889085  0.33904274  0.65274946    -0.13200
C1779       C  0.79635257  0.33659210  0.37915344     0.24800
C1780       C  0.79765149  0.30789435  0.36607962    -0.23300
C1781       C  0.81495784  0.29775683  0.32357211     0.19700
C1782       C  0.83175857  0.31622421  0.29558260     0.24800
C1783       C  0.83285762  0.34473644  0.31239816    -0.23200
C1784       C  0.81282486  0.35503424  0.35057675     0.19700
F1785       F  0.80631552  0.38264219  0.35534250    -0.13200
F1786       F  0.77760453  0.34707413  0.41675406    -0.15500
F1787       F  0.84529903  0.30653264  0.24956932    -0.15500
F1788       F  0.81530827  0.27014455  0.30867369    -0.13200
C1789       C  0.94057285  0.43211115  0.13731558     0.24800
C1790       C  0.92407441  0.44843208  0.10163337    -0.23300
C1791       C  0.89534756  0.45213526  0.11243278     0.19700
C1792       C  0.88314007  0.43819029  0.15555913     0.24800
C1793       C  0.89853476  0.41759833  0.18339844    -0.23200
C1794       C  0.92784058  0.41744807  0.17908988     0.19700
F1795       F  0.94427021  0.40558384  0.21802571    -0.13200
F1796       F  0.96902735  0.43075925  0.13307403    -0.15500
F1797       F  0.85604858  0.44433319  0.16920982    -0.15500
F1798       F  0.87901589  0.46929809  0.08184821    -0.13200
C1799       C  0.68123500  0.16313077  0.31875671     0.24800
C1800       C  0.65189413  0.16666273  0.32013836    -0.23300
C1801       C  0.64040444  0.18737194  0.35581572     0.19700
C1802       C  0.65779843  0.20760273  0.37951462     0.24800
C1803       C  0.68690090  0.20658872  0.36945544    -0.23200
C1804       C  0.69848592  0.18409852  0.33915841     0.19700
F1805       F  0.72662050  0.18156337  0.33183157    -0.13200
F1806       F  0.69325725  0.13931110  0.29771920    -0.15500
F1807       F  0.64637460  0.22754524  0.41380886    -0.15500
F1808       F  0.61318329  0.18646457  0.37236329    -0.13200
C1809       C  0.60113879  0.07074265  0.15018439     0.24800
C1810       C  0.58781241  0.08969184  0.18758806    -0.23300
C1811       C  0.55981781  0.08416195  0.20275005     0.19700
C1812       C  0.54457778  0.06362912  0.17436171     0.24800
C1813       C  0.55648396  0.04960511  0.12851000    -0.23200
C1814       C  0.58521594  0.05240624  0.11793042     0.19700
F1815       F  0.59827928  0.03571023  0.07944498    -0.13200
F1816       F  0.62943710  0.06740153  0.14904138    -0.15500
F1817       F  0.51865591  0.05693339  0.19270786    -0.15500
F1818       F  0.54769861  0.09742887  0.24701202    -0.13200
C1819       C  0.60426540  0.61160762  0.21957524     0.31200
C1820       C  0.63398599  0.64799374  0.28400232     0.31300
C1821       C  0.63179259  0.62267839  0.19318758    -0.04900
C1822       C  0.58878646  0.63959560  0.23483172    -0.05700
C1823       C  0.61385876  0.60061736  0.27607901    -0.05600
C1824       C  0.64671581  0.64136332  0.22632924    -0.05000
C1825       C  0.60413323  0.65822020  0.26782009    -0.05700
C1826       C  0.62920135  0.61896395  0.30854012    -0.05600
C1827       C  0.66955300  0.65040035  0.19592260    -0.31000
N1828       N  0.66968403  0.63702681  0.14592171     0.15500
C1829       C  0.64607519  0.62106666  0.14283509    -0.31000
H1830       H  0.63980608  0.60941859  0.10604760     0.17400
C1831       C  0.58952605  0.68351635  0.26849452    -0.30000
N1832       N  0.56517433  0.68072049  0.23949638     0.14200
C1833       C  0.56487389  0.65405995  0.21760404    -0.30000
C1834       C  0.63601709  0.60519455  0.35681529    -0.30300
N1835       N  0.62455505  0.57898308  0.35523195     0.14700
H1836       H  0.64831551  0.61380289  0.39074203     0.17400
C1837       C  0.61096572  0.57619179  0.30563629    -0.30300
H1838       H  0.59939935  0.55781145  0.29214923     0.17400
H1839       H  0.54885449  0.64602313  0.18980660     0.17400
H1840       H  0.68514967  0.66557625  0.20893474     0.17400
H1841       H  0.59647485  0.70308572  0.28704634     0.17400
N1842       N  0.99184973  0.71123966  0.23560442    -0.35400
N1843       N  0.53620165  0.75382332  0.23648129    -0.55900
N1844       N  0.99343835  0.79803167  0.23665989    -0.35400
N1845       N  0.94915322  0.75558700  0.24525546    -0.55900
C1846       C  0.51496865  0.69554161  0.24727664     0.28200
C1847       C  0.96884479  0.69673950  0.25180040     0.28200
C1848       C  0.51696600  0.81298827  0.24901079     0.28200
C1849       C  0.97087115  0.81382257  0.25266069     0.28200
C1850       C  0.55154365  0.73045467  0.22365901     0.36800
C1851       C  0.55247646  0.77626261  0.22475651     0.36800
C1852       C  0.93242350  0.73309399  0.23528990     0.36800
C1853       C  0.93337992  0.77864517  0.23505540     0.36800
C1854       C  0.50648566  0.67094877  0.27151158    -0.20600
C1855       C  0.97752218  0.67169658  0.27430479    -0.20600
C1856       C  0.50912108  0.83839350  0.27357180    -0.20600
C1857       C  0.98014122  0.83895320  0.27563282    -0.20600
C1858       C  0.57745541  0.73816945  0.20289542    -0.21700
C1859       C  0.57804407  0.76705467  0.20359685    -0.21700
C1860       C  0.90610264  0.74188320  0.21829266    -0.21700
C1861       C  0.90674880  0.77068675  0.21793915    -0.21700
C1862       C  0.54343024  0.70239846  0.23500783    -0.17100
C1863       C  0.94017962  0.70484235  0.24434369    -0.17100
C1864       C  0.94210455  0.80676238  0.24465648    -0.17000
C1865       C  0.54522952  0.80483040  0.23652340    -0.17000
H1866       H  0.51971643  0.65422346  0.28631248     0.15900
H1867       H  0.96439540  0.65566527  0.29157885     0.15900
H1868       H  0.52279288  0.85485332  0.28889270     0.15900
H1869       H  0.96736371  0.85591136  0.29254108     0.15900
H1870       H  0.59430857  0.72442075  0.18896493     0.14100
H1871       H  0.59539455  0.77977921  0.19015844     0.14100
H1872       H  0.88833382  0.72893312  0.20688543     0.14100
H1873       H  0.88961197  0.78418348  0.20592185     0.14100
H1874       H  0.99163538  0.72953607  0.21303713     0.27400
H1875       H  0.99267277  0.77936597  0.21361087     0.27400
C1876       C  0.85153866  0.86414043  0.28180647     0.31200
C1877       C  0.88313020  0.89718006  0.21792922     0.31300
C1878       C  0.83901098  0.87048213  0.22441248    -0.04900
C1879       C  0.85858540  0.89340851  0.30773792    -0.05700
C1880       C  0.88134027  0.85263976  0.26809812    -0.05600
C1881       C  0.85529702  0.88694206  0.19165550    -0.05000
C1882       C  0.87450515  0.91017709  0.27422969    -0.05700
C1883       C  0.89728590  0.86902524  0.23350389    -0.05600
C1884       C  0.84147476  0.88921230  0.14121923    -0.31000
N1885       N  0.81666820  0.87522217  0.14278098     0.15500
C1886       C  0.81519495  0.86335194  0.19366137    -0.31000
H1887       H  0.79795631  0.85060794  0.20761817     0.17400
C1888       C  0.88207024  0.93379686  0.30495095    -0.30000
N1889       N  0.87102297  0.93231049  0.35676484     0.14200
C1890       C  0.85744731  0.90725662  0.35926470    -0.30000
C1891       C  0.92109872  0.85324454  0.21974668    -0.30300
N1892       N  0.92094165  0.82892917  0.24807857     0.14700
H1893       H  0.93696231  0.85833993  0.18964150     0.17400
C1894       C  0.89688887  0.82865473  0.27845144    -0.30300
H1895       H  0.89079411  0.81174935  0.30489974     0.17400
H1896       H  0.84811412  0.89941542  0.39657865     0.17400
H1897       H  0.84868864  0.90073364  0.10599733     0.17400
H1898       H  0.89532157  0.95056240  0.29090534     0.17400
N1899       N  0.62354849  0.50656079  0.41315972    -0.35400
N1900       N  0.62701167  0.55082332  0.50016216    -0.55900
N1901       N  0.62261623  0.50725616  0.58468801    -0.35400
N1902       N  0.62481451  0.96304221  0.49764972    -0.55900
C1903       C  0.63061923  0.52927684  0.38321667     0.28200
C1904       C  0.62932552  0.98317449  0.38174226     0.28200
C1905       C  0.62908879  0.53036962  0.61627187     0.28200
C1906       C  0.62849415  0.98416268  0.61492085     0.28200
C1907       C  0.62132063  0.56655972  0.45518925     0.36800
C1908       C  0.62097561  0.56701962  0.54581044     0.36800
C1909       C  0.61824312  0.94728324  0.45184234     0.36800
C1910       C  0.61859889  0.94742674  0.54243356     0.36800
C1911       C  0.64147802  0.52010959  0.33267305    -0.20600
C1912       C  0.64063626  0.99118612  0.33173263    -0.20600
C1913       C  0.63931249  0.52175684  0.66681986    -0.20600
C1914       C  0.63898890  0.99283987  0.66593348    -0.20600
C1915       C  0.61145703  0.59267278  0.47263261    -0.21700
C1916       C  0.61132556  0.59298179  0.52959758    -0.21700
C1917       C  0.60749501  0.92179417  0.46787567    -0.21700
C1918       C  0.60782008  0.92184864  0.52483968    -0.21700
C1919       C  0.62568534  0.55800449  0.39867877    -0.17100
C1920       C  0.62316461  0.95492452  0.39578819    -0.17100
C1921       C  0.62341356  0.95551764  0.59894269    -0.17000
C1922       C  0.62479035  0.55905007  0.60196580    -0.17000
H1923       H  0.64920740  0.53290268  0.29964980     0.15900
H1924       H  0.64761719  0.97763210  0.29790541     0.15900
H1925       H  0.64657488  0.53491336  0.70088066     0.15900
H1926       H  0.64597252  0.97972746  0.69918604     0.15900
H1927       H  0.60440180  0.60967295  0.44723598     0.14100
H1928       H  0.60423732  0.61024260  0.55589471     0.14100
H1929       H  0.59983827  0.90490243  0.44148042     0.14100
H1930       H  0.60044488  0.90505107  0.55025055     0.14100
H1931       H  0.61251153  0.50707902  0.45029539     0.27400
H1932       H  0.61219819  0.50733912  0.54688502     0.27400
N1933       N  0.87437924  0.50552099  0.41780835    -0.35400
N1934       N  0.87376319  0.96219183  0.50201956    -0.55900
N1935       N  0.87602003  0.50572833  0.58945363    -0.35400
N1936       N  0.87100953  0.54903705  0.50508175    -0.55900
C1937       C  0.86749409  0.98242875  0.38678219     0.28200
C1938       C  0.86734227  0.52841177  0.38824278     0.28200
C1939       C  0.87020419  0.98265236  0.61915479     0.28200
C1940       C  0.86826870  0.52847836  0.62074895     0.28200
C1941       C  0.87880656  0.94610147  0.45590786     0.36800
C1942       C  0.88037055  0.94635670  0.54623072     0.36800
C1943       C  0.87620841  0.56521293  0.46069966     0.36800
C1944       C  0.87596102  0.56521238  0.55102554     0.36800
C1945       C  0.85573244  0.99090196  0.33735929    -0.20600
C1946       C  0.85577950  0.51975002  0.33817662    -0.20600
C1947       C  0.85859841  0.99095445  0.66959891    -0.20600
C1948       C  0.85747030  0.51976166  0.67063261    -0.20600
C1949       C  0.88902063  0.92016021  0.47104673    -0.21700
C1950       C  0.88999671  0.92032009  0.52800220    -0.21700
C1951       C  0.88468616  0.59160180  0.47876592    -0.21700
C1952       C  0.88442147  0.59161616  0.53571759    -0.21700
C1953       C  0.87275690  0.95394590  0.40056766    -0.17100
C1954       C  0.87198253  0.55692260  0.40422410    -0.17100
C1955       C  0.87163857  0.55697151  0.60662382    -0.17000
C1956       C  0.87580914  0.95433781  0.60273031    -0.17000
H1957       H  0.84759551  0.97777383  0.30407614     0.15900
H1958       H  0.84773285  0.53280650  0.30573898     0.15900
H1959       H  0.85113110  0.97773145  0.70214567     0.15900
H1960       H  0.84913555  0.53275732  0.70408469     0.15900
H1961       H  0.89528741  0.90287998  0.44397314     0.14100
H1962       H  0.89701926  0.90315888  0.55306603     0.14100
H1963       H  0.89073737  0.60904702  0.45371160     0.14100
H1964       H  0.89022448  0.60900559  0.56273913     0.14100
H1965       H  0.88574919  0.50568327  0.45453870     0.27400
H1966       H  0.88697939  0.50603894  0.55224318     0.27400
C1967       C  0.60043795  0.89943972  0.77531540     0.31200
C1968       C  0.63437425  0.86524478  0.71394927     0.31300
C1969       C  0.62894858  0.89158737  0.80372123    -0.04900
C1970       C  0.58799721  0.87062455  0.75914655    -0.05700
C1971       C  0.61059188  0.91145490  0.71954506    -0.05600
C1972       C  0.64588056  0.87347540  0.77245074    -0.05000
C1973       C  0.60524115  0.85282542  0.72869344    -0.05700
C1974       C  0.62745023  0.89378233  0.68797435    -0.05600
C1975       C  0.66933514  0.86724125  0.80461133    -0.31000
N1976       N  0.66823907  0.88198287  0.85352883     0.15500
C1977       C  0.64360297  0.89701440  0.85318343    -0.31000
H1978       H  0.63687834  0.91106323  0.88641622     0.17400
C1979       C  0.59125505  0.82714842  0.72504929    -0.30000
N1980       N  0.56554690  0.82944104  0.74988500     0.14200
C1981       C  0.56374035  0.85597914  0.77170224    -0.30000
C1982       C  0.63444501  0.90799853  0.64010607    -0.30300
N1983       N  0.62249059  0.93413450  0.64181681     0.14700
H1984       H  0.64750181  0.89988224  0.60668769     0.17400
C1985       C  0.60860253  0.93649673  0.69107797    -0.30300
H1986       H  0.59774621  0.95529772  0.70519852     0.17400
H1987       H  0.54621829  0.86399175  0.79597964     0.17400
H1988       H  0.68614116  0.85286073  0.79328912     0.17400
H1989       H  0.59929930  0.80791928  0.70641267     0.17400
N1990       N  0.53592904  0.75636359  0.75307579    -0.35400
N1991       N  0.99237358  0.79978175  0.75149934    -0.55900
N1992       N  0.94891703  0.75608028  0.74498259    -0.35400
N1993       N  0.99236614  0.71278755  0.75646293    -0.55900
C1994       C  0.55117899  0.77979816  0.76501024     0.28200
C1995       C  0.55104227  0.73379233  0.76975850     0.28200
C1996       C  0.93324946  0.77928271  0.75726718     0.28200
C1997       C  0.93324923  0.73335325  0.75737563     0.28200
C1998       C  0.51530958  0.81535433  0.73933130     0.36800
C1999       C  0.96940836  0.81519155  0.73781305     0.36800
C2000       C  0.51574237  0.69674150  0.74796143     0.36800
C2001       C  0.96994011  0.69680131  0.74135843     0.36800
C2002       C  0.57610346  0.77198734  0.79015308    -0.20600
C2003       C  0.57600827  0.74310246  0.79318657    -0.20600
C2004       C  0.90749203  0.77119293  0.77815513    -0.20600
C2005       C  0.90750372  0.74230000  0.77833212    -0.20600
C2006       C  0.50674013  0.84050827  0.71706538    -0.21700
C2007       C  0.97778258  0.84047065  0.71651432    -0.21700
C2008       C  0.50808042  0.67064774  0.72692901    -0.21700
C2009       C  0.97922113  0.67071477  0.72263480    -0.21700
C2010       C  0.54373127  0.80785456  0.75127917    -0.17100
C2011       C  0.54382228  0.70498993  0.76066199    -0.17100
C2012       C  0.94115286  0.70482149  0.74775493    -0.17000
C2013       C  0.94096518  0.80746599  0.74722962    -0.17000
H2014       H  0.59268128  0.78565760  0.80494517     0.15900
H2015       H  0.59256860  0.73040318  0.81053279     0.15900
H2016       H  0.89041537  0.78467836  0.79201205     0.15900
H2017       H  0.89046722  0.72943688  0.79270343     0.15900
H2018       H  0.51987339  0.85720653  0.70243378     0.14100
H2019       H  0.96442072  0.85707298  0.70159079     0.14100
H2020       H  0.52179430  0.65341197  0.71495445     0.14100
H2021       H  0.96658076  0.65350448  0.70702337     0.14100
H2022       H  0.51768614  0.75559552  0.72934700     0.27400
H2023       H  0.96804993  0.75569546  0.72405649     0.27400
C2024       C  0.84965800  0.64715837  0.72166969     0.31200
C2025       C  0.88327830  0.61608377  0.78720037     0.31300
C2026       C  0.85768989  0.61761777  0.69817187    -0.04900
C2027       C  0.87863496  0.66023406  0.73592963    -0.05700
C2028       C  0.83725426  0.64012785  0.77952679    -0.05600
C2029       C  0.87580231  0.60233144  0.73056649    -0.05000
C2030       C  0.89589236  0.64426909  0.76939424    -0.05700
C2031       C  0.85486610  0.62459549  0.81225228    -0.05600
C2032       C  0.88381712  0.57875269  0.69946789    -0.31000
N2033       N  0.86968683  0.57839679  0.65047526     0.15500
C2034       C  0.85322446  0.60174649  0.64998017    -0.31000
H2035       H  0.83927908  0.60682398  0.61631731     0.17400
C2036       C  0.92105422  0.65857302  0.77507829    -0.30000
N2037       N  0.91945859  0.68319184  0.74785974     0.14200
C2038       C  0.89360035  0.68416357  0.72321896    -0.30000
C2039       C  0.84147599  0.61993315  0.86202765    -0.30300
N2040       N  0.81572886  0.63218368  0.86131089     0.14700
H2041       H  0.84978924  0.60810924  0.89605802     0.17400
C2042       C  0.81263381  0.64379154  0.81054290    -0.30300
H2043       H  0.79334235  0.65352836  0.79716630     0.17400
H2044       H  0.88618253  0.70101940  0.69776583     0.17400
H2045       H  0.89898631  0.56304879  0.71146962     0.17400
H2046       H  0.93941006  0.65158169  0.79733304     0.17400
N2047       N  0.74345207  0.87556594  0.08381086    -0.35400
N2048       N  0.78654060  0.87891582  0.99875524    -0.55900
N2049       N  0.74189813  0.87895957  0.91246893    -0.35400
N2050       N  0.69885821  0.88116322  0.99815444    -0.55900
C2051       C  0.76660356  0.88109897  0.11513742     0.28200
C2052       C  0.72060467  0.88265975  0.11480437     0.28200
C2053       C  0.76513529  0.88554025  0.88256886     0.28200
C2054       C  0.71875344  0.88593769  0.88220896     0.28200
C2055       C  0.80270684  0.87174140  0.04282023     0.36800
C2056       C  0.80215581  0.87386605  0.95239719     0.36800
C2057       C  0.68327910  0.87499814  0.04340592     0.36800
C2058       C  0.68210069  0.87691300  0.95303644     0.36800
C2059       C  0.75827150  0.89217299  0.16608726    -0.20600
C2060       C  0.72933856  0.89310472  0.16588871    -0.20600
C2061       C  0.75650922  0.89708941  0.83318225    -0.20600
C2062       C  0.72747838  0.89712587  0.83280829    -0.20600
C2063       C  0.82852579  0.86189726  0.02422054    -0.21700
C2064       C  0.82817887  0.86320202  0.96732271    -0.21700
C2065       C  0.65668904  0.86664897  0.02670426    -0.21700
C2066       C  0.65589522  0.86798006  0.96981970    -0.21700
C2067       C  0.79496024  0.87537781  0.09968680    -0.17100
C2068       C  0.69205382  0.87836769  0.09975004    -0.17100
C2069       C  0.68994241  0.88166347  0.89702582    -0.17000
C2070       C  0.79385481  0.87996333  0.89700543    -0.17000
H2071       H  0.77155770  0.89918524  0.19990953     0.15900
H2072       H  0.71624315  0.90081270  0.19957745     0.15900
H2073       H  0.76968883  0.90489430  0.80056719     0.15900
H2074       H  0.71430193  0.90489735  0.80001717     0.15900
H2075       H  0.84578198  0.85427731  0.04894151     0.14100
H2076       H  0.84514779  0.85664307  0.94011051     0.14100
H2077       H  0.63966796  0.85990082  0.05270401     0.14100
H2078       H  0.63814403  0.86253287  0.94384056     0.14100
H2079       H  0.74307786  0.86486799  0.04588056     0.27400
H2080       H  0.74192220  0.86780583  0.94881001     0.27400
N2081       N  0.74392224  0.63888697  0.09185514    -0.35400
N2082       N  0.70024478  0.63557612  0.00462552    -0.55900
N2083       N  0.74358216  0.63420937  0.92104451    -0.35400
N2084       N  0.78752942  0.63280306  0.00739891    -0.55900
C2085       C  0.72033120  0.63292069  0.12108243     0.28200
C2086       C  0.76657665  0.63161133  0.12304281     0.28200
C2087       C  0.72063880  0.62689052  0.89062966     0.28200
C2088       C  0.76657774  0.62609752  0.89159443     0.28200
C2089       C  0.68435314  0.64287732  0.04911812     0.36800
C2090       C  0.68421656  0.64026011  0.95936756     0.36800
C2091       C  0.80369407  0.63897407  0.05252836     0.36800
C2092       C  0.80330681  0.63786405  0.96177855     0.36800
C2093       C  0.72814746  0.62167915  0.17117613    -0.20600
C2094       C  0.75714561  0.62084902  0.17240707    -0.20600
C2095       C  0.72917880  0.61367258  0.84185279    -0.20600
C2096       C  0.75811754  0.61309829  0.84251103    -0.20600
C2097       C  0.65831639  0.65254532  0.03209295    -0.21700
C2098       C  0.65823972  0.65092768  0.97520940    -0.21700
C2099       C  0.82975732  0.64819187  0.03539580    -0.21700
C2100       C  0.82946430  0.64767391  0.97825422    -0.21700
C2101       C  0.69193634  0.63821695  0.10475410    -0.17100
C2102       C  0.79550553  0.63518744  0.10880534    -0.17100
C2103       C  0.79491526  0.63214602  0.90574025    -0.17000
C2104       C  0.69227429  0.63328852  0.90430585    -0.17000
H2105       H  0.71441293  0.61433718  0.20333683     0.15900
H2106       H  0.76975637  0.61270439  0.20565815     0.15900
H2107       H  0.71596060  0.60530843  0.80907792     0.15900
H2108       H  0.77140022  0.60417457  0.81024361     0.15900
H2109       H  0.64105370  0.65975779  0.05797951     0.14100
H2110       H  0.64097119  0.65682769  0.94872782     0.14100
H2111       H  0.84710308  0.65494720  0.06129120     0.14100
H2112       H  0.84662545  0.65396835  0.95204259     0.14100
H2113       H  0.74447544  0.64961686  0.05488907     0.27400
H2114       H  0.74373607  0.64691821  0.95660879     0.27400
C2115       C  0.88441648  0.89880952  0.78260268     0.31200
C2116       C  0.85085315  0.86722393  0.71591838     0.31300
C2117       C  0.85502308  0.89185082  0.80697671    -0.04900
C2118       C  0.87792096  0.91106621  0.72567387    -0.05700
C2119       C  0.89596147  0.86917709  0.76770790    -0.05600
C2120       C  0.83795594  0.87599956  0.77227172    -0.05000
C2121       C  0.86115986  0.89497621  0.69131542    -0.05700
C2122       C  0.87925936  0.85319669  0.73214426    -0.05600
C2123       C  0.81380487  0.86961954  0.80159322    -0.31000
N2124       N  0.81542738  0.88110740  0.85368529     0.15500
C2125       C  0.84092492  0.89400108  0.85759750    -0.31000
H2126       H  0.84889297  0.90365736  0.89528600     0.17400
C2127       C  0.86004394  0.90846482  0.64094467    -0.30000
N2128       N  0.87477431  0.93279494  0.64461026     0.14200
C2129       C  0.88621018  0.93423834  0.69628373    -0.30000
C2130       C  0.89458144  0.82891794  0.71936337    -0.30300
N2131       N  0.91921186  0.82916101  0.74826435     0.14700
H2132       H  0.88858648  0.81242382  0.69035924     0.17400
C2133       C  0.91996261  0.85355242  0.77842629    -0.30300
H2134       H  0.93701778  0.85960852  0.80570846     0.17400
H2135       H  0.89957486  0.95099006  0.71152753     0.17400
H2136       H  0.79659252  0.85686051  0.78641905     0.17400
H2137       H  0.84918553  0.90123122  0.60406021     0.17400
C2138       C  0.88460295  0.61258188  0.22491761     0.31200
C2139       C  0.85235517  0.64568219  0.29256259     0.31300
C2140       C  0.87756834  0.60056351  0.28175131    -0.04900
C2141       C  0.89711547  0.64178324  0.23955589    -0.05700
C2142       C  0.85559566  0.62112972  0.20068908    -0.05600
C2143       C  0.86105759  0.61721175  0.31556012    -0.05000
C2144       C  0.88088602  0.65875054  0.27496698    -0.05700
C2145       C  0.83916760  0.63815448  0.23506678    -0.05600
C2146       C  0.85704865  0.60305000  0.36438981    -0.31000
N2147       N  0.87124826  0.57819856  0.36164971     0.15500
C2148       C  0.88397683  0.57663653  0.31100209    -0.31000
H2149       H  0.89703061  0.55935577  0.29641045     0.17400
C2150       C  0.89445926  0.68457337  0.27854184    -0.30000
N2151       N  0.91837450  0.68352796  0.24740867     0.14200
C2152       C  0.91918153  0.65806814  0.22128156    -0.30000
C2153       C  0.81574640  0.64596695  0.20415689    -0.30300
N2154       N  0.81701478  0.63370442  0.15246231     0.14700
H2155       H  0.79910262  0.65994207  0.21821683     0.17400
C2156       C  0.84165747  0.61888751  0.15001644    -0.30300
H2157       H  0.84908051  0.60737566  0.11375451     0.17400
H2158       H  0.93456244  0.65226295  0.19006457     0.17400
H2159       H  0.84458569  0.61034938  0.39935873     0.17400
H2160       H  0.88725630  0.70310397  0.30095799     0.17400
C2161       C  0.63556791  0.64985275  0.72584211     0.31200
C2162       C  0.60412316  0.61404430  0.78415556     0.31300
C2163       C  0.64851971  0.64074382  0.78131328    -0.04900
C2164       C  0.60614090  0.66066283  0.74215146    -0.05700
C2165       C  0.62973415  0.62105728  0.69623981    -0.05600
C2166       C  0.63197701  0.62330183  0.81205883    -0.05000
C2167       C  0.58983490  0.64287364  0.77285529    -0.05700
C2168       C  0.61322033  0.60321525  0.72630317    -0.05600
C2169       C  0.64592169  0.61921879  0.86183555    -0.31000
N2170       N  0.67113850  0.63249113  0.86074702     0.15500
C2171       C  0.67312507  0.64512468  0.81113430    -0.31000
H2172       H  0.69126762  0.65682164  0.79805835     0.17400
C2173       C  0.56534632  0.65805541  0.78593706    -0.30000
N2174       N  0.56606476  0.68364068  0.76152804     0.14200
C2175       C  0.59118846  0.68525970  0.73503303    -0.30000
C2176       C  0.60948127  0.57883320  0.69489795    -0.30300
N2177       N  0.62383181  0.58065647  0.64632828     0.14700
H2178       H  0.59711619  0.56098310  0.70676875     0.17400
C2179       C  0.63667110  0.60629591  0.64733979    -0.30300
H2180       H  0.65031404  0.61359568  0.61496773     0.17400
H2181       H  0.59810783  0.70304849  0.71176610     0.17400
H2182       H  0.63840551  0.60731141  0.89632559     0.17400
H2183       H  0.54827386  0.65121688  0.81179724     0.17400
C2184       C  0.63510120  0.86320393  0.27993132     0.31200
C2185       C  0.60249414  0.89568607  0.21601384     0.31300
C2186       C  0.64789828  0.87050576  0.22300792    -0.04900
C2187       C  0.60655659  0.84997495  0.26246613    -0.05700
C2188       C  0.62677382  0.89203731  0.30563836    -0.05600
C2189       C  0.63181183  0.88827483  0.19202943    -0.05000
C2190       C  0.58996329  0.86695599  0.23011788    -0.05700
C2191       C  0.61033590  0.90909223  0.27324890    -0.05600
C2192       C  0.64697671  0.89404847  0.14457040    -0.31000
N2193       N  0.67098543  0.87859558  0.14363467     0.15500
C2194       C  0.67171989  0.86399742  0.19150381    -0.31000
H2195       H  0.68843190  0.84974245  0.20269403     0.17400
C2196       C  0.56595937  0.85204561  0.21592658    -0.30000
N2197       N  0.56728592  0.82615163  0.23840384     0.14200
C2198       C  0.59239479  0.82450240  0.26553124    -0.30000
C2199       C  0.60846601  0.93482135  0.30214349    -0.30300
N2200       N  0.62198034  0.93318180  0.35185451     0.14700
H2201       H  0.59874331  0.95379989  0.28778100     0.17400
C2202       C  0.63364507  0.90710134  0.35351207    -0.30300
H2203       H  0.64667720  0.89967161  0.38685895     0.17400
H2204       H  0.59984934  0.80582566  0.28536239     0.17400
H2205       H  0.64087768  0.90823783  0.11240646     0.17400
H2206       H  0.54879526  0.85952294  0.19075534     0.17400
O2207       O  0.52127414  0.51577777  0.11423971    -0.78900
O2208       O  0.96602623  0.55207771  0.93848654    -0.78900
O2209       O  0.55362916  0.51634221  0.94072975    -0.78900
O2210       O  0.94510750  0.53152011  0.04686137    -0.78900
O2211       O  0.52178407  0.54872684  0.93818336    -0.79000
O2212       O  0.96637476  0.51534493  0.11762294    -0.78900
O2213       O  0.93297716  0.52129337  0.95013888    -0.78900
O2214       O  0.54486324  0.52880901  0.04314364    -0.78900
C2215       C  0.53987292  0.53073967  0.09365220     1.10800
C2216       C  0.94058531  0.54544194  0.93594157     1.10700
C2217       C  0.54565270  0.54011863  0.92464866     1.10800
C2218       C  0.94932698  0.53220650  0.09723913     1.10700
O2219       O  0.96421995  0.96294169  0.05299305    -0.78900
O2220       O  0.51867810  0.99382512  0.88130443    -0.79000
O2221       O  0.56385158  0.97672970  0.02146114    -0.78900
O2222       O  0.96336229  0.96774455  0.95043168    -0.78900
O2223       O  0.96328234  0.99741988  0.88352810    -0.78900
O2224       O  0.52272011  0.96223906  0.05244179    -0.78900
O2225       O  0.92343614  0.98051099  0.02782695    -0.78900
O2226       O  0.52028113  0.96569262  0.95033812    -0.78900
Co2227     Co  0.99370573  0.49104863  0.07669488     1.51500
Co2228     Co  0.99259837  0.52304083  0.91528461     1.51700
Co2229     Co  0.53145030  0.49700966  0.99924451     1.51600
Co2230     Co  0.95581743  0.49900766  0.00241837     1.51500
O2231       O  0.99363365  0.51263205  0.99704885    -1.40800
C2232       C  0.93749758  0.96460455  0.05900580     1.10700
C2233       C  0.52398417  0.96979747  0.90001633     1.10800
C2234       C  0.54960324  0.96252730  0.05517047     1.10800
C2235       C  0.95773960  0.97345986  0.90148389     1.10700
O2236       O  0.73021496  0.72952362  0.38728458    -0.78900
O2237       O  0.73178198  0.78561031  0.61153035    -0.78900
O2238       O  0.69797409  0.72970798  0.55745391    -0.78900
O2239       O  0.72552143  0.82350491  0.46078674    -0.78900
O2240       O  0.72860008  0.73048781  0.62442361    -0.79000
O2241       O  0.71742787  0.78309751  0.41586051    -0.78900
O2242       O  0.70424091  0.78908583  0.53818439    -0.78900
O2243       O  0.69887682  0.72988554  0.45081117    -0.78900
C2244       C  0.70555123  0.72417157  0.40214817     1.10800
C2245       C  0.70897930  0.79358731  0.58892474     1.10700
C2246       C  0.70386379  0.72563191  0.60671706     1.10800
C2247       C  0.71274938  0.80951737  0.42371645     1.10700
O2248       O  0.76675190  0.76975921  0.36639205    -0.78900
O2249       O  0.78259495  0.72364442  0.56747624    -0.79000
O2250       O  0.75222117  0.69636569  0.45137015    -0.78900
O2251       O  0.75888466  0.81279180  0.54576620    -0.78900
O2252       O  0.78709546  0.77821546  0.55792567    -0.78900
O2253       O  0.78275296  0.73085734  0.44183001    -0.78900
O2254       O  0.77317797  0.79429358  0.44465680    -0.78900
O2255       O  0.74797895  0.69359246  0.56150702    -0.78900
Co2256     Co  0.75177559  0.75722553  0.43290794     1.51500
Co2257     Co  0.75783807  0.75438792  0.58716633     1.51700
Co2258     Co  0.72415493  0.71384524  0.50501683     1.51600
Co2259     Co  0.73721721  0.78964262  0.49099231     1.51500
O2260       O  0.74300336  0.75036384  0.51090149    -1.40800
C2261       C  0.77849872  0.78954864  0.39313345     1.10700
C2262       C  0.77308758  0.69971404  0.57510086     1.10800
C2263       C  0.77676762  0.70505410  0.43873837     1.10800
C2264       C  0.78161406  0.80360665  0.56507076     1.10700
C2265       C  0.58518665  0.90243035  0.11957834     0.24800
C2266       C  0.58458689  0.91103368  0.17578446    -0.23300
C2267       C  0.56734862  0.93362304  0.19168543     0.19700
C2268       C  0.55648871  0.95078545  0.15157073     0.24800
C2269       C  0.56265734  0.94530666  0.09563981    -0.23200
C2270       C  0.57640415  0.92063240  0.07951373     0.19700
F2271       F  0.58084938  0.91377423  0.02557236    -0.13200
F2272       F  0.59529119  0.87686763  0.10342339    -0.15500
F2273       F  0.53947653  0.97236245  0.16738490    -0.15500
F2274       F  0.55842930  0.93735585  0.24453159    -0.13200
C2275       C  0.64507762  0.82928164  0.35740445     0.24800
C2276       C  0.65475916  0.84821614  0.31782405    -0.23300
C2277       C  0.68279369  0.85770360  0.32171712     0.19700
C2278       C  0.70165584  0.84474272  0.35615110     0.24800
C2279       C  0.69255127  0.82330933  0.38962209    -0.23200
C2280       C  0.66419342  0.81601111  0.39163290     0.19700
F2281       F  0.65489136  0.79734079  0.42892533    -0.13200
F2282       F  0.61733971  0.82595801  0.36780291    -0.15500
F2283       F  0.72885248  0.85318265  0.35687328    -0.15500
F2284       F  0.69166756  0.88071267  0.29490752    -0.13200
C2285       C  0.68410305  0.71071282  0.69604098     0.24800
C2286       C  0.68342245  0.71023044  0.63841996    -0.23300
C2287       C  0.66339072  0.69351152  0.61011655     0.19700
C2288       C  0.64719387  0.67485425  0.63883479     0.24800
C2289       C  0.65141469  0.67184421  0.69565931    -0.23200
C2290       C  0.66653470  0.69301244  0.72460752     0.19700
F2291       F  0.66299793  0.69794996  0.77965664    -0.13200
F2292       F  0.70120911  0.72858947  0.72447519    -0.15500
F2293       F  0.62660071  0.66077304  0.61129102    -0.15500
F2294       F  0.66008263  0.69418393  0.55432599    -0.13200
C2295       C  0.55924437  0.59043905  0.81245137     0.24800
C2296       C  0.58856810  0.59196307  0.81456265    -0.23300
C2297       C  0.60348191  0.57014003  0.84042239     0.19700
C2298       C  0.58975719  0.55294505  0.87706425     0.24800
C2299       C  0.56073845  0.55567884  0.88350503    -0.23200
C2300       C  0.54532935  0.57282252  0.84760808     0.19700
F2301       F  0.51678408  0.57210362  0.84553251    -0.13200
F2302       F  0.54414235  0.60421444  0.77397057    -0.15500
F2303       F  0.60475821  0.53418990  0.90659102    -0.15500
F2304       F  0.63113467  0.56525071  0.82987950    -0.13200
C2305       C  0.93165310  0.59232092  0.19211660     0.24800
C2306       C  0.90196215  0.59188955  0.19107189    -0.23300
C2307       C  0.88865010  0.56854781  0.16568523     0.19700
C2308       C  0.90423864  0.54903819  0.13492133     0.24800
C2309       C  0.93339811  0.55174817  0.13142304    -0.23200
C2310       C  0.94698314  0.57346677  0.15958291     0.19700
F2311       F  0.97503112  0.57690754  0.15432584    -0.13200
F2312       F  0.94620649  0.60886124  0.22806204    -0.15500
F2313       F  0.89095120  0.52733530  0.10897590    -0.15500
F2314       F  0.86083190  0.56366796  0.17309366    -0.13200
C2315       C  0.80568374  0.65089405  0.34067539     0.24800
C2316       C  0.83341249  0.66072230  0.33395882    -0.23300
C2317       C  0.84412896  0.67907937  0.37533618     0.19700
C2318       C  0.82587780  0.69268485  0.41231968     0.24800
C2319       C  0.79719780  0.68603065  0.41217297    -0.23200
C2320       C  0.78794287  0.66311859  0.38009349     0.19700
F2321       F  0.76172842  0.65263845  0.38630443    -0.11000
F2322       F  0.79605304  0.62846444  0.31093902    -0.15500
F2323       F  0.83631853  0.71169388  0.44949759    -0.15500
F2324       F  0.87211328  0.68215701  0.38356960    -0.13200
C2325       C  0.82899157  0.82150918  0.68414050     0.24800
C2326       C  0.83069069  0.85069598  0.68022665    -0.23300
C2327       C  0.81109622  0.86440727  0.64620143     0.19700
C2328       C  0.79616008  0.84928563  0.60638194     0.24800
C2329       C  0.79828918  0.82005082  0.60429272    -0.23200
C2330       C  0.81358986  0.80620559  0.64548787     0.19700
F2331       F  0.81259932  0.77792573  0.65026555    -0.13200
F2332       F  0.84043953  0.80791046  0.72741863    -0.15500
F2333       F  0.77937893  0.86318677  0.57066329    -0.15500
F2334       F  0.80529351  0.89213399  0.65310665    -0.13200
C2335       C  0.95042219  0.93746325  0.82848902     0.24800
C2336       C  0.93973279  0.95487412  0.87042905    -0.23300
C2337       C  0.91094026  0.95578299  0.88141774     0.19700
C2338       C  0.89287568  0.93869509  0.85143590     0.24800
C2339       C  0.90373928  0.91797780  0.81477332    -0.23200
C2340       C  0.93248257  0.91942070  0.79997815     0.19700
F2341       F  0.94288015  0.90505287  0.75535476    -0.13200
F2342       F  0.97799373  0.93823197  0.81462628    -0.15500
F2343       F  0.86508893  0.94497219  0.85380245    -0.15500
F2344       F  0.90011254  0.97416676  0.91952034    -0.13200
C2345       C  0.89007071  0.56963809  0.83178941     0.24800
C2346       C  0.89843409  0.59790778  0.82742032    -0.23300
C2347       C  0.91417539  0.60991708  0.87127457     0.19700
C2348       C  0.92650652  0.59288825  0.91017489     0.24800
C2349       C  0.92162544  0.56402091  0.90804736    -0.23200
C2350       C  0.90216675  0.55271427  0.87079632     0.19700
F2351       F  0.89592024  0.52500867  0.86995569    -0.13200
F2352       F  0.86900410  0.55852498  0.80064606    -0.15500
F2353       F  0.94338033  0.60449273  0.94972706    -0.15500
F2354       F  0.91593672  0.63800959  0.87953187    -0.13200
C2355       C  0.78777819  0.68836073  0.66770370     0.24800
C2356       C  0.78991655  0.68251616  0.61070739    -0.23300
C2357       C  0.81468613  0.67057106  0.58943307     0.19700
C2358       C  0.83595080  0.66242911  0.62532819     0.24800
C2359       C  0.83168348  0.66415902  0.68302031    -0.23200
C2360       C  0.80930034  0.68066085  0.70301730     0.19700
F2361       F  0.81020491  0.69267306  0.75435732    -0.13200
F2362       F  0.76634271  0.70427468  0.68843244    -0.15500
F2363       F  0.86095528  0.65372751  0.60379005    -0.15500
F2364       F  0.81889128  0.66837490  0.53396980    -0.13200
C2365       C  0.55885092  0.93315274  0.77928111     0.24800
C2366       C  0.57898143  0.91673790  0.80721676    -0.23300
C2367       C  0.57412858  0.91165971  0.86343665     0.19700
C2368       C  0.55378278  0.92700517  0.89236428     0.24800
C2369       C  0.53887911  0.94852649  0.86642086    -0.23200
C2370       C  0.54064299  0.95066892  0.80898565     0.19700
F2371       F  0.52409562  0.96891157  0.78137932    -0.13200
F2372       F  0.55496720  0.93070529  0.72382310    -0.15500
F2373       F  0.54869136  0.92078616  0.94571309    -0.15500
F2374       F  0.58766729  0.89071725  0.88970590    -0.13200
C2375       C  0.66087787  0.80957589  0.61118036     0.24800
C2376       C  0.68986951  0.81169808  0.61962388    -0.23300
C2377       C  0.70079378  0.83412313  0.65100408     0.19700
C2378       C  0.68267354  0.85265787  0.67806776     0.24800
C2379       C  0.65354598  0.84762306  0.67773833    -0.23200
C2380       C  0.64282516  0.82814953  0.63852558     0.19700
F2381       F  0.61546708  0.82856974  0.62284512    -0.13200
F2382       F  0.65012758  0.78993290  0.57568422    -0.15500
F2383       F  0.69353606  0.87620926  0.70203249    -0.15500
F2384       F  0.72889086  0.83904275  0.65274914    -0.13200
C2385       C  0.79635260  0.83659196  0.37915336     0.24800
C2386       C  0.79765154  0.80789421  0.36607949    -0.23300
C2387       C  0.81495788  0.79775669  0.32357194     0.19700
C2388       C  0.83175857  0.81622414  0.29558245     0.24800
C2389       C  0.83285758  0.84473638  0.31239803    -0.23200
C2390       C  0.81282485  0.85503415  0.35057668     0.19700
F2391       F  0.80631548  0.88264211  0.35534251    -0.13200
F2392       F  0.77760464  0.84707396  0.41675417    -0.15500
F2393       F  0.84529896  0.80653263  0.24956906    -0.15500
F2394       F  0.81530824  0.77014441  0.30867336    -0.13200
C2395       C  0.94057282  0.93211120  0.13731555     0.24800
C2396       C  0.92407437  0.94843213  0.10163332    -0.23300
C2397       C  0.89534753  0.95213529  0.11243273     0.19700
C2398       C  0.88314004  0.93819029  0.15555907     0.24800
C2399       C  0.89853472  0.91759831  0.18339833    -0.23200
C2400       C  0.92784055  0.91744805  0.17908977     0.19700
F2401       F  0.94427017  0.90558382  0.21802562    -0.13200
F2402       F  0.96902733  0.93075927  0.13307399    -0.15500
F2403       F  0.85604856  0.94433317  0.16920982    -0.15500
F2404       F  0.87901588  0.96929821  0.08184830    -0.13200
C2405       C  0.68123502  0.66313066  0.31875676     0.24800
C2406       C  0.65189415  0.66666267  0.32013839    -0.23300
C2407       C  0.64040447  0.68737194  0.35581561     0.19700
C2408       C  0.65779847  0.70760272  0.37951450     0.24800
C2409       C  0.68690095  0.70658863  0.36945545    -0.23200
C2410       C  0.69848596  0.68409837  0.33915853     0.19700
F2411       F  0.72662055  0.68156313  0.33183194    -0.13200
F2412       F  0.69325721  0.63931095  0.29771925    -0.15500
F2413       F  0.64637463  0.72754538  0.41380842    -0.15500
F2414       F  0.61318330  0.68646462  0.37236301    -0.13200
C2415       C  0.60113870  0.57074255  0.15018471     0.24800
C2416       C  0.58781235  0.58969173  0.18758842    -0.23300
C2417       C  0.55981774  0.58416188  0.20275041     0.19700
C2418       C  0.54457765  0.56362914  0.17436193     0.24800
C2419       C  0.55648382  0.54960510  0.12851022    -0.23200
C2420       C  0.58521583  0.55240616  0.11793067     0.19700
F2421       F  0.59827916  0.53571022  0.07944506    -0.13200
F2422       F  0.62943700  0.56740145  0.14904173    -0.15500
F2423       F  0.51865571  0.55693357  0.19270789    -0.15500
F2424       F  0.54769858  0.59742883  0.24701239    -0.13200
loop_ 
_geom_bond_atom_site_label_1 
_geom_bond_atom_site_label_2 
_geom_bond_distance 
_geom_bond_site_symmetry_2 
_ccdc_geom_bond_type 
C1            C3   1.557       .  S
C1            C5   1.543       .  S
C1            C4   1.559       .  S
C1          C598   1.509       .  S
C2            C6   1.545       .  S
C2            C8   1.538       .  S
C2            C7   1.552       .  S
C2          C588   1.502       .  S
C3           C11   1.394       .  A
C3            C6   1.384       .  A
C4           C15   1.396       .  A
C4            C7   1.391       .  A
C5           C19   1.389       .  A
C5            C8   1.375       .  A
C6            C9   1.388       .  A
C7           C13   1.390       .  A
C8           C16   1.391       .  A
C9           N10   1.354       .  A
C9           H22   1.082       .  S
N10          C11   1.362       .  A
N10         C283   1.455       .  S
C11          H12   1.081       .  S
C13          N14   1.360       .  A
C13          H23   1.080       .  S
N14          C15   1.367       .  A
N14          C44   1.465       .  S
C15          H21   1.082       .  S
C16          N17   1.368       .  A
C16          H18   1.082       .  S
N17          C19   1.367       .  A
N17         C101   1.469       .  S
C19          H20   1.082       .  S
N24          C29   1.361       .  A
N24        C1240   1.361       .  A
N24          H56   1.041       .  S
N25          C32   1.360       .  A
N25          C33   1.360       .  A
N26          C31   1.359       .  A
N26        C1242   1.360       .  A
N26          H57   1.041       .  S
N27          C34   1.357       .  A
N27          C35   1.356       .  A
C28          C36   1.386       .  A
C28          C44   1.427       .  A
C28        N1236   1.361   1_455  A
C29          C45   1.428       .  A
C29          C37   1.386       .  A
C30          C38   1.387       .  A
C30          C47   1.428       .  A
C30        N1238   1.360   1_455  A
C31          C46   1.423       .  A
C31          C39   1.385       .  A
C32          C44   1.429       .  A
C32          C40   1.386       .  A
C33          C47   1.427       .  A
C33          C41   1.385       .  A
C34          C42   1.384       .  A
C34          C45   1.418       .  A
C35          C43   1.385       .  A
C35          C46   1.421       .  A
C36        C1249   1.380   1_455  A
C36          H48   1.082       .  S
C37        C1248   1.380       .  A
C37          H49   1.082       .  S
C38        C1251   1.380   1_455  A
C38          H50   1.082       .  S
C39        C1250   1.380       .  A
C39          H51   1.082       .  S
C40          C41   1.379       .  A
C40          H52   1.082       .  S
C41          H53   1.082       .  S
C42          C43   1.376       .  A
C42          H54   1.082       .  S
C43          H55   1.080       .  S
C45         N333   1.460       .  S
C46          N74   1.458       .  S
C47         N379   1.466       .  S
C58          C60   1.546       .  S
C58          C62   1.550       .  S
C58          C61   1.557       .  S
C58         C571   1.495       .  S
C59          C63   1.546       .  S
C59          C65   1.554       .  S
C59          C64   1.537       .  S
C59         C581   1.493       .  S
C60          C68   1.395       .  A
C60          C63   1.371       .  A
C61          C72   1.398       .  A
C61          C64   1.381       .  A
C62          C76   1.388       .  A
C62          C65   1.387       .  A
C63          C66   1.392       .  A
C64          C70   1.385       .  A
C65          C73   1.393       .  A
C66          N67   1.360       .  A
C66          H79   1.081       .  S
N67          C68   1.368       .  A
N67         C249   1.467       .  S
C68          H69   1.082       .  S
C70          N71   1.362       .  A
C70          H80   1.082       .  S
N71          C72   1.365       .  A
N71         C135   1.465       .  S
C72          H78   1.081       .  S
C73          N74   1.362       .  A
C73          H75   1.081       .  S
N74          C76   1.360       .  A
C76          H77   1.082       .  S
N81          C85   1.362       .  A
N81         C692   1.362   1_545  A
N81         H113   1.040       .  S
N82          C89   1.362       .  A
N82          C90   1.362       .  A
N83          C87   1.364       .  A
N83         C694   1.365   1_545  A
N83         H114   1.040       .  S
N84          C91   1.362       .  A
N84          C92   1.362       .  A
C85          C93   1.387       .  A
C85         C101   1.431       .  A
C86         C102   1.431       .  A
C86          C94   1.386       .  A
C86         N687   1.362       .  A
C87          C95   1.386       .  A
C87         C104   1.434       .  A
C88         C103   1.434       .  A
C88          C96   1.386       .  A
C88         N689   1.365       .  A
C89         C101   1.432       .  A
C89          C97   1.386       .  A
C90         C104   1.430       .  A
C90          C98   1.385       .  A
C91          C99   1.386       .  A
C91         C102   1.431       .  A
C92         C100   1.385       .  A
C92         C103   1.430       .  A
C93         C700   1.381   1_545  A
C93         H105   1.082       .  S
C94         C699   1.381       .  A
C94         H106   1.082       .  S
C95         C702   1.381   1_545  A
C95         H107   1.082       .  S
C96         C701   1.381       .  A
C96         H108   1.082       .  S
C97          C98   1.377       .  A
C97         H109   1.081       .  S
C98         H110   1.081       .  S
C99         C100   1.377       .  A
C99         H111   1.082       .  S
C100        H112   1.082       .  S
C102        N382   1.469       .  S
C103        N165   1.473       .  S
C104        N359   1.471       .  S
N115        C120   1.360       .  A
N115        C725   1.361   1_545  A
N115        H147   1.040       .  S
N116        C123   1.360       .  A
N116        C124   1.360       .  A
N117        C122   1.358       .  A
N117        C727   1.359   1_545  A
N117        H148   1.040       .  S
N118        C125   1.360       .  A
N118        C126   1.359       .  A
C119        C127   1.387       .  A
C119        C135   1.429       .  A
C119        N721   1.361       .  A
C120        C136   1.425       .  A
C120        C128   1.385       .  A
C121        C129   1.387       .  A
C121        C138   1.424       .  A
C121        N723   1.359       .  A
C122        C137   1.420       .  A
C122        C130   1.385       .  A
C123        C135   1.427       .  A
C123        C131   1.385       .  A
C124        C138   1.426       .  A
C124        C132   1.385       .  A
C125        C133   1.386       .  A
C125        C136   1.427       .  A
C126        C134   1.384       .  A
C126        C137   1.425       .  A
C127        C734   1.377       .  A
C127        H139   1.081       .  S
C128        C733   1.377   1_545  A
C128        H140   1.082       .  S
C129        C736   1.376       .  A
C129        H141   1.081       .  S
C130        C735   1.376   1_545  A
C130        H142   1.082       .  S
C131        C132   1.378       .  A
C131        H143   1.082       .  S
C132        H144   1.082       .  S
C133        C134   1.377       .  A
C133        H145   1.082       .  S
C134        H146   1.082       .  S
C136        N329   1.463       .  S
C137        N215   1.459       .  S
C138        N310   1.461       .  S
C149        C151   1.568       .  S
C149        C153   1.556       .  S
C149        C152   1.543       .  S
C149        C548   1.510       .  S
C150        C154   1.559       .  S
C150        C156   1.548       .  S
C150        C155   1.555       .  S
C150        C561   1.504       .  S
C151        C159   1.404       .  A
C151        C154   1.389       .  A
C152        C163   1.390       .  A
C152        C155   1.378       .  A
C153        C167   1.396       .  A
C153        C156   1.378       .  A
C154        C157   1.395       .  A
C155        C161   1.399       .  A
C156        C164   1.396       .  A
C157        N158   1.363       .  A
C157        H170   1.082       .  S
N158        C159   1.371       .  A
N158        C251   1.474       .  S
C159        H160   1.082       .  S
C161        N162   1.365       .  A
C161        H171   1.081       .  S
N162        C163   1.363       .  A
N162        C192   1.468       .  S
C163        H169   1.082       .  S
C164        N165   1.368       .  A
C164        H166   1.082       .  S
N165        C167   1.364       .  A
C167        H168   1.081       .  S
N172        C177   1.361       .  A
N172        C176   1.362       .  A
N172        H204   1.041       .  S
N173        C181   1.359       .  A
N173       C1392   1.360       .  A
N174        C179   1.359       .  A
N174        C178   1.359       .  A
N174        H205   1.041       .  S
N175        C183   1.360       .  A
N175       C1394   1.360       .  A
C176        C184   1.386       .  A
C176        C192   1.430       .  A
C177        C193   1.431       .  A
C177        C185   1.387       .  A
C178        C186   1.386       .  A
C178        C195   1.423       .  A
C179        C194   1.425       .  A
C179        C187   1.387       .  A
C180        C192   1.428       .  A
C180        C188   1.387       .  A
C180       N1385   1.360   1_455  A
C181        C195   1.424       .  A
C181        C189   1.384       .  A
C182        C190   1.385       .  A
C182        C193   1.426       .  A
C182       N1387   1.360   1_455  A
C183        C191   1.385       .  A
C183        C194   1.427       .  A
C184        C185   1.383       .  A
C184        H196   1.082       .  S
C185        H197   1.082       .  S
C186        C187   1.380       .  A
C186        H198   1.082       .  S
C187        H199   1.082       .  S
C188       C1401   1.378   1_455  A
C188        H200   1.082       .  S
C189       C1400   1.378       .  A
C189        H201   1.082       .  S
C190       C1403   1.377   1_455  A
C190        H202   1.081       .  S
C191       C1402   1.377       .  A
C191        H203   1.082       .  S
C193        N356   1.466       .  S
C194        N219   1.464       .  S
C195        N313   1.460       .  S
C206        C208   1.554       .  S
C206        C210   1.563       .  S
C206        C209   1.552       .  S
C206        C541   1.514       .  S
C207        C211   1.547       .  S
C207        C213   1.530       .  S
C207        C212   1.547       .  S
C207        C528   1.501       .  S
C208        C216   1.392       .  A
C208        C211   1.382       .  A
C209        C220   1.390       .  A
C209        C212   1.390       .  A
C210        C224   1.399       .  A
C210        C213   1.378       .  A
C211        C214   1.391       .  A
C212        C218   1.387       .  A
C213        C221   1.385       .  A
C214        N215   1.362       .  A
C214        H227   1.082       .  S
N215        C216   1.359       .  A
C216        H217   1.081       .  S
C218        N219   1.362       .  A
C218        H228   1.081       .  S
N219        C220   1.368       .  A
C220        H226   1.082       .  S
C221        N222   1.355       .  A
C221        H223   1.082       .  S
N222        C224   1.366       .  A
N222        C285   1.461       .  S
C224        H225   1.080       .  S
N229        C234   1.357       .  A
N229        C233   1.360       .  A
N229        H261   1.039       .  S
N230        C237   1.363   1_556  A
N230        C238   1.361       .  A
N231        C236   1.366       .  A
N231        C235   1.363       .  A
N231        H262   1.038       .  S
N232        C239   1.360   1_556  A
N232        C240   1.363       .  A
C233        C241   1.386       .  A
C233        C249   1.423       .  A
C234        C250   1.421       .  A
C234        C242   1.386       .  A
C235        C243   1.388       .  A
C235        C252   1.435       .  A
C236        C251   1.433       .  A
C236        C244   1.384       .  A
C237        C249   1.430       .  A
C237        C245   1.384       .  A
C238        C252   1.432       .  A
C238        C246   1.387       .  A
C239        C247   1.386       .  A
C239        C250   1.431       .  A
C240        C248   1.384       .  A
C240        C251   1.428       .  A
C241        C242   1.377       .  A
C241        H253   1.082       .  S
C242        H254   1.082       .  S
C243        C244   1.381       .  A
C243        H255   1.082       .  S
C244        H256   1.082       .  S
C245        C246   1.379   1_554  A
C245        H257   1.082       .  S
C246        H258   1.082       .  S
C247        C248   1.379   1_554  A
C247        H259   1.080       .  S
C248        H260   1.082       .  S
C250        N375   1.459       .  S
C252        N306   1.468       .  S
N263        C268   1.364       .  A
N263        C267   1.361       .  A
N263        H295   1.041       .  S
N264        C271   1.353       .  A
N264        C272   1.356   1_554  A
N265        C270   1.355       .  A
N265        C269   1.359       .  A
N265        H296   1.041       .  S
N266        C273   1.363       .  A
N266        C274   1.361   1_554  A
C267        C275   1.386       .  A
C267        C283   1.430       .  A
C268        C284   1.431       .  A
C268        C276   1.386       .  A
C269        C277   1.384       .  A
C269        C286   1.419       .  A
C270        C285   1.420       .  A
C270        C278   1.387       .  A
C271        C283   1.415       .  A
C271        C279   1.385       .  A
C272        C286   1.417       .  A
C272        C280   1.385       .  A
C273        C281   1.384       .  A
C273        C284   1.431       .  A
C274        C282   1.387       .  A
C274        C285   1.433       .  A
C275        C276   1.380       .  A
C275        H287   1.081       .  S
C276        H288   1.082       .  S
C277        C278   1.377       .  A
C277        H289   1.082       .  S
C278        H290   1.082       .  S
C279        C280   1.376   1_554  A
C279        H291   1.082       .  S
C280        H292   1.082       .  S
C281        C282   1.381   1_554  A
C281        H293   1.082       .  S
C282        H294   1.082       .  S
C284        N336   1.473       .  S
C286        N352   1.456       .  S
C297        C299   1.558       .  S
C297        C301   1.549       .  S
C297        C300   1.539       .  S
C297        C521   1.505       .  S
C298        C302   1.542       .  S
C298        C304   1.559       .  S
C298        C303   1.547       .  S
C298        C508   1.505       .  S
C299        C307   1.397       .  A
C299        C302   1.383       .  A
C300        C311   1.388       .  A
C300        C303   1.376       .  A
C301        C315   1.388       .  A
C301        C304   1.389       .  A
C302        C305   1.389       .  A
C303        C309   1.392       .  A
C304        C312   1.394       .  A
C305        N306   1.364       .  A
C305        H318   1.082       .  S
N306        C307   1.366       .  A
C307        H308   1.081       .  S
C309        N310   1.361       .  A
C309        H319   1.081       .  S
N310        C311   1.363       .  A
C311        H317   1.082       .  S
C312        N313   1.364       .  A
C312        H314   1.082       .  S
N313        C315   1.360       .  A
C315        H316   1.082       .  S
C320        C322   1.539       .  S
C320        C324   1.555       .  S
C320        C323   1.552       .  S
C320        C488   1.510       .  S
C321        C325   1.536       .  S
C321        C327   1.560       .  S
C321        C326   1.560       .  S
C321        C498   1.513       .  S
C322        C330   1.390       .  A
C322        C325   1.371       .  A
C323        C334   1.388       .  A
C323        C326   1.395       .  A
C324        C338   1.395       .  A
C324        C327   1.387       .  A
C325        C328   1.388       .  A
C326        C332   1.396       .  A
C327        C335   1.396       .  A
C328        N329   1.362       .  A
C328        H341   1.082       .  S
N329        C330   1.366       .  A
C330        H331   1.082       .  S
C332        N333   1.364       .  A
C332        H342   1.081       .  S
N333        C334   1.357       .  A
C334        H340   1.081       .  S
C335        N336   1.369       .  A
C335        H337   1.082       .  S
N336        C338   1.366       .  A
C338        H339   1.082       .  S
C343        C345   1.547       .  S
C343        C347   1.561       .  S
C343        C346   1.537       .  S
C343        C471   1.499       .  S
C344        C348   1.549       .  S
C344        C350   1.541       .  S
C344        C349   1.562       .  S
C344        C478   1.498       .  S
C345        C353   1.389       .  A
C345        C348   1.379       .  A
C346        C357   1.384       .  A
C346        C349   1.382       .  A
C347        C361   1.401       .  A
C347        C350   1.381       .  A
C348        C351   1.392       .  A
C349        C355   1.401       .  A
C350        C358   1.387       .  A
C351        N352   1.360       .  A
C351        H364   1.082       .  S
N352        C353   1.359       .  A
C353        H354   1.082       .  S
C355        N356   1.370       .  A
C355        H365   1.081       .  S
N356        C357   1.359       .  A
C357        H363   1.082       .  S
C358        N359   1.363       .  A
C358        H360   1.082       .  S
N359        C361   1.371       .  A
C361        H362   1.082       .  S
C366        C368   1.553       .  S
C366        C370   1.547       .  S
C366        C369   1.555       .  S
C366        C458   1.500       .  S
C367        C371   1.546       .  S
C367        C373   1.557       .  S
C367        C372   1.544       .  S
C367        C448   1.495       .  S
C368        C376   1.395       .  A
C368        C371   1.375       .  A
C369        C380   1.397       .  A
C369        C372   1.384       .  A
C370        C384   1.388       .  A
C370        C373   1.382       .  A
C371        C374   1.389       .  A
C372        C378   1.388       .  A
C373        C381   1.401       .  A
C374        N375   1.356       .  A
C374        H387   1.082       .  S
N375        C376   1.365       .  A
C376        H377   1.082       .  S
C378        N379   1.363       .  A
C378        H388   1.082       .  S
N379        C380   1.366       .  A
C380        H386   1.081       .  S
C381        N382   1.367       .  A
C381        H383   1.080       .  S
N382        C384   1.362       .  A
C384        H385   1.082       .  S
O389        C397   1.251       .  A
O389      Co1621   1.976   1_445  S
O390        C398   1.254       .  A
O390       Co410   1.944       .  S
O391        C399   1.265       .  A
O391       Co411   2.009   1_545  S
O392        C400   1.234       .  A
O392       Co412   1.933   1_545  S
O393        C399   1.246       .  A
O393      Co1622   1.930   1_455  S
O394        C400   1.249       .  A
O394       Co409   1.986   1_545  S
O395        C398   1.265       .  A
O395       Co412   1.990   1_546  S
O396        C397   1.245       .  A
O396       Co411   1.943   1_544  S
C397        C601   1.456       .  S
C398        C531   1.440       .  S
C399        C481   1.448       .  S
C400        C491   1.444       .  S
O401        C414   1.281       .  A
O401      Co1015   2.020       .  S
O402        C415   1.267       .  A
O402      Co2228   2.022   1_455  S
O403        C416   1.271       .  A
O403      Co1017   1.900   1_554  S
O404        C417   1.249       .  A
O404      Co1018   1.960   1_556  S
O405        C417   1.262       .  A
O405      Co1016   2.002       .  S
O406        C416   1.281       .  A
O406      Co2227   2.020   1_455  S
O407        C414   1.270       .  A
O407      Co1018   1.889       .  S
O408        C415   1.249       .  A
O408      Co1017   1.960       .  S
Co409      O1601   1.976   1_565  S
Co409      O1007   2.020       .  S
Co409      O2224   2.020       .  S
Co409       O413   2.205   1_564  S
Co410      O1605   1.930       .  S
Co410      O2220   2.022   1_545  S
Co410      O1011   2.002   1_545  S
Co410       O413   2.050       .  S
Co411      O1009   1.900   1_556  S
Co411      O1014   1.960       .  S
Co411      O1625   1.945   1_465  S
Co412      O1010   1.960   1_554  S
Co412      O1013   1.889       .  S
Co412       O413   1.922   1_564  S
O413      Co1623   1.945   1_545  S
C414        C578   1.452       .  S
C415        C551   1.465       .  S
C416        C451   1.432       .  S
C417        C518   1.436       .  S
O418        C426   1.256       .  A
O418       Co438   1.991       .  S
O419        C427   1.275       .  A
O419       Co439   2.011       .  S
O420        C428   1.243       .  A
O420       Co440   1.917       .  S
O421        C429   1.263       .  A
O421       Co441   1.872       .  S
O422        C428   1.273       .  A
O422       Co439   2.028       .  S
O423        C429   1.289       .  A
O423       Co438   2.090       .  S
O424        C427   1.261       .  A
O424       Co441   1.940       .  S
O425        C426   1.242       .  A
O425       Co440   1.946       .  S
C426        C591   1.447       .  S
C427        C558   1.444       .  S
C428        C468   1.452       .  S
C429        C461   1.434       .  S
O430        C443   1.265       .  A
O430       Co438   1.871       .  S
O431        C444   1.249       .  A
O431       Co439   1.928       .  S
O432        C445   1.281       .  A
O432       Co440   2.024       .  S
O433        C446   1.259       .  A
O433       Co441   1.996       .  S
O434        C446   1.247       .  A
O434       Co439   1.946       .  S
O435        C445   1.267       .  A
O435       Co438   1.948       .  S
O436        C443   1.286       .  A
O436       Co441   2.061       .  S
O437        C444   1.273       .  A
O437       Co440   2.034       .  S
Co438       O442   1.967       .  S
Co439       O442   1.980       .  S
Co440       O442   1.967       .  S
Co441       O442   1.965       .  S
C443        C568   1.435       .  S
C444        C538   1.443       .  S
C445        C501   1.465       .  S
C446        C511   1.455       .  S
C447        C448   1.411       .  A
C447        C452   1.380       .  A
C447        F454   1.358       .  S
C448        C449   1.398       .  A
C449        C450   1.383       .  A
C449        F456   1.354       .  S
C450        C451   1.402       .  A
C450        F455   1.355       .  S
C451        C452   1.392       .  A
C452        F453   1.354       .  S
C457        C458   1.411       .  A
C457        C462   1.390       .  A
C457        F464   1.354       .  S
C458        C459   1.413       .  A
C459        C460   1.378       .  A
C459        F466   1.358       .  S
C460        C461   1.390       .  A
C460        F465   1.357       .  S
C461        C462   1.396       .  A
C462        F463   1.358       .  S
C467        C468   1.393       .  A
C467        C472   1.387       .  A
C467        F474   1.358       .  S
C468        C469   1.413       .  A
C469        C470   1.380       .  A
C469        F476   1.359       .  S
C470        C471   1.399       .  A
C470        F475   1.357       .  S
C471        C472   1.416       .  A
C472        F473   1.357       .  S
C477        C478   1.398       .  A
C477        C482   1.381       .  A
C477        F484   1.356       .  S
C478        C479   1.415       .  A
C479        C480   1.387       .  A
C479        F486   1.358       .  S
C480        C481   1.394       .  A
C480        F485   1.358       .  S
C481        C482   1.410       .  A
C482        F483   1.359       .  S
C487        C488   1.413       .  A
C487        C492   1.386       .  A
C487        F494   1.354       .  S
C488        C489   1.413       .  A
C489        C490   1.389       .  A
C489        F496   1.358       .  S
C490        C491   1.397       .  A
C490        F495   1.358       .  S
C491        C492   1.390       .  A
C492        F493   1.352       .  S
C497        C498   1.413       .  A
C497        C502   1.389       .  A
C497        F504   1.358       .  S
C498        C499   1.412       .  A
C499        C500   1.393       .  A
C499        F506   1.354       .  S
C500        C501   1.403       .  A
C500        F505   1.358       .  S
C501        C502   1.399       .  A
C502        F503   1.356       .  S
C507        C508   1.402       .  A
C507        C512   1.385       .  A
C507        F514   1.357       .  S
C508        C509   1.412       .  A
C509        C510   1.388       .  A
C509        F516   1.357       .  S
C510        C511   1.399       .  A
C510        F515   1.358       .  S
C511        C512   1.409       .  A
C512        F513   1.359       .  S
C517        C518   1.391       .  A
C517        C522   1.388       .  A
C517        F524   1.355       .  S
C518        C519   1.395       .  A
C519        C520   1.382       .  A
C519        F526   1.357       .  S
C520        C521   1.409       .  A
C520        F525   1.355       .  S
C521        C522   1.416       .  A
C522        F523   1.357       .  S
C527        C528   1.416       .  A
C527        C532   1.380       .  A
C527        F534   1.357       .  S
C528        C529   1.411       .  A
C529        C530   1.386       .  A
C529        F536   1.355       .  S
C530        C531   1.399       .  A
C530        F535   1.359       .  S
C531        C532   1.394       .  A
C532        F533   1.357       .  S
C537        C538   1.403       .  A
C537        C542   1.387       .  A
C537        F544   1.357       .  S
C538        C539   1.399       .  A
C539        C540   1.393       .  A
C539        F546   1.357       .  S
C540        C541   1.410       .  A
C540        F545   1.358       .  S
C541        C542   1.400       .  A
C542        F543   1.356       .  S
C547        C548   1.416       .  A
C547        C552   1.389       .  A
C547        F554   1.356       .  S
C548        C549   1.406       .  A
C549        C550   1.390       .  A
C549        F556   1.357       .  S
C550        C551   1.405       .  A
C550        F555   1.352       .  S
C551        C552   1.397       .  A
C552        F553   1.358       .  S
C557        C558   1.398       .  A
C557        C562   1.387       .  A
C557        F564   1.359       .  S
C558        C559   1.400       .  A
C559        C560   1.385       .  A
C559        F566   1.359       .  S
C560        C561   1.408       .  A
C560        F565   1.358       .  S
C561        C562   1.410       .  A
C562        F563   1.356       .  S
C567        C568   1.400       .  A
C567        C572   1.379       .  A
C567        F574   1.359       .  S
C568        C569   1.393       .  A
C569        C570   1.382       .  A
C569        F576   1.359       .  S
C570        C571   1.413       .  A
C570        F575   1.356       .  S
C571        C572   1.405       .  A
C572        F573   1.355       .  S
C577        C578   1.412       .  A
C577        C582   1.384       .  A
C577        F584   1.359       .  S
C578        C579   1.401       .  A
C579        C580   1.380       .  A
C579        F586   1.358       .  S
C580        C581   1.407       .  A
C580        F585   1.359       .  S
C581        C582   1.398       .  A
C582        F583   1.356       .  S
C587        C588   1.405       .  A
C587        C592   1.380       .  A
C587        F594   1.358       .  S
C588        C589   1.405       .  A
C589        C590   1.389       .  A
C589        F596   1.356       .  S
C590        C591   1.406       .  A
C590        F595   1.359       .  S
C591        C592   1.396       .  A
C592        F593   1.354       .  S
C597        C598   1.412       .  A
C597        C602   1.387       .  A
C597        F604   1.355       .  S
C598        C599   1.409       .  A
C599        C600   1.391       .  A
C599        F606   1.358       .  S
C600        C601   1.400       .  A
C600        F605   1.353       .  S
C601        C602   1.398       .  A
C602        F603   1.359       .  S
C607        C609   1.557       .  S
C607        C611   1.543       .  S
C607        C610   1.559       .  S
C607       C1204   1.509       .  S
C608        C612   1.545       .  S
C608        C614   1.538       .  S
C608        C613   1.552       .  S
C608       C1194   1.502       .  S
C609        C617   1.394       .  A
C609        C612   1.384       .  A
C610        C621   1.396       .  A
C610        C613   1.391       .  A
C611        C625   1.389       .  A
C611        C614   1.375       .  A
C612        C615   1.388       .  A
C613        C619   1.390       .  A
C614        C622   1.391       .  A
C615        N616   1.354       .  A
C615        H628   1.082       .  S
N616        C617   1.362       .  A
N616        C889   1.455       .  S
C617        H618   1.081       .  S
C619        N620   1.360       .  A
C619        H629   1.080       .  S
N620        C621   1.367       .  A
N620        C650   1.465       .  S
C621        H627   1.082       .  S
C622        N623   1.368       .  A
C622        H624   1.082       .  S
N623        C625   1.367       .  A
N623        C707   1.469       .  S
C625        H626   1.082       .  S
N630        C635   1.361       .  A
N630       C1846   1.361       .  A
N630        H662   1.041       .  S
N631        C638   1.360       .  A
N631        C639   1.360       .  A
N632        C637   1.359       .  A
N632       C1848   1.360       .  A
N632        H663   1.041       .  S
N633        C640   1.357       .  A
N633        C641   1.356       .  A
C634        C642   1.386       .  A
C634        C650   1.427       .  A
C634       N1842   1.361   1_455  A
C635        C651   1.428       .  A
C635        C643   1.386       .  A
C636        C644   1.387       .  A
C636        C653   1.428       .  A
C636       N1844   1.360   1_455  A
C637        C652   1.423       .  A
C637        C645   1.385       .  A
C638        C650   1.429       .  A
C638        C646   1.386       .  A
C639        C653   1.427       .  A
C639        C647   1.385       .  A
C640        C648   1.384       .  A
C640        C651   1.418       .  A
C641        C649   1.385       .  A
C641        C652   1.421       .  A
C642       C1855   1.380   1_455  A
C642        H654   1.082       .  S
C643       C1854   1.380       .  A
C643        H655   1.082       .  S
C644       C1857   1.380   1_455  A
C644        H656   1.082       .  S
C645       C1856   1.380       .  A
C645        H657   1.082       .  S
C646        C647   1.379       .  A
C646        H658   1.082       .  S
C647        H659   1.082       .  S
C648        C649   1.376       .  A
C648        H660   1.082       .  S
C649        H661   1.080       .  S
C651        N939   1.460       .  S
C652        N680   1.458       .  S
C653        N985   1.466       .  S
C664        C666   1.546       .  S
C664        C668   1.550       .  S
C664        C667   1.557       .  S
C664       C1177   1.495       .  S
C665        C669   1.546       .  S
C665        C671   1.554       .  S
C665        C670   1.537       .  S
C665       C1187   1.493       .  S
C666        C674   1.395       .  A
C666        C669   1.371       .  A
C667        C678   1.398       .  A
C667        C670   1.381       .  A
C668        C682   1.388       .  A
C668        C671   1.387       .  A
C669        C672   1.392       .  A
C670        C676   1.385       .  A
C671        C679   1.393       .  A
C672        N673   1.360       .  A
C672        H685   1.081       .  S
N673        C674   1.368       .  A
N673        C855   1.467       .  S
C674        H675   1.082       .  S
C676        N677   1.362       .  A
C676        H686   1.082       .  S
N677        C678   1.365       .  A
N677        C741   1.465       .  S
C678        H684   1.081       .  S
C679        N680   1.362       .  A
C679        H681   1.081       .  S
N680        C682   1.360       .  A
C682        H683   1.082       .  S
N687        C691   1.362       .  A
N687        H719   1.040       .  S
N688        C695   1.362       .  A
N688        C696   1.362       .  A
N689        C693   1.364       .  A
N689        H720   1.040       .  S
N690        C697   1.362       .  A
N690        C698   1.362       .  A
C691        C699   1.387       .  A
C691        C707   1.431       .  A
C692        C708   1.431       .  A
C692        C700   1.386       .  A
C693        C701   1.386       .  A
C693        C710   1.434       .  A
C694        C709   1.434       .  A
C694        C702   1.386       .  A
C695        C707   1.432       .  A
C695        C703   1.386       .  A
C696        C710   1.430       .  A
C696        C704   1.385       .  A
C697        C705   1.386       .  A
C697        C708   1.431       .  A
C698        C706   1.385       .  A
C698        C709   1.430       .  A
C699        H711   1.082       .  S
C700        H712   1.082       .  S
C701        H713   1.082       .  S
C702        H714   1.082       .  S
C703        C704   1.377       .  A
C703        H715   1.081       .  S
C704        H716   1.081       .  S
C705        C706   1.377       .  A
C705        H717   1.082       .  S
C706        H718   1.082       .  S
C708        N988   1.469       .  S
C709        N771   1.473       .  S
C710        N965   1.471       .  S
N721        C726   1.360       .  A
N721        H753   1.040       .  S
N722        C729   1.360       .  A
N722        C730   1.360       .  A
N723        C728   1.358       .  A
N723        H754   1.040       .  S
N724        C731   1.360       .  A
N724        C732   1.359       .  A
C725        C733   1.387       .  A
C725        C741   1.429       .  A
C726        C742   1.425       .  A
C726        C734   1.385       .  A
C727        C735   1.387       .  A
C727        C744   1.424       .  A
C728        C743   1.420       .  A
C728        C736   1.385       .  A
C729        C741   1.427       .  A
C729        C737   1.385       .  A
C730        C744   1.426       .  A
C730        C738   1.385       .  A
C731        C739   1.386       .  A
C731        C742   1.427       .  A
C732        C740   1.384       .  A
C732        C743   1.425       .  A
C733        H745   1.081       .  S
C734        H746   1.082       .  S
C735        H747   1.081       .  S
C736        H748   1.082       .  S
C737        C738   1.378       .  A
C737        H749   1.082       .  S
C738        H750   1.082       .  S
C739        C740   1.377       .  A
C739        H751   1.082       .  S
C740        H752   1.082       .  S
C742        N935   1.463       .  S
C743        N821   1.459       .  S
C744        N916   1.461       .  S
C755        C757   1.568       .  S
C755        C759   1.556       .  S
C755        C758   1.543       .  S
C755       C1154   1.510       .  S
C756        C760   1.559       .  S
C756        C762   1.548       .  S
C756        C761   1.555       .  S
C756       C1167   1.504       .  S
C757        C765   1.404       .  A
C757        C760   1.389       .  A
C758        C769   1.390       .  A
C758        C761   1.378       .  A
C759        C773   1.396       .  A
C759        C762   1.378       .  A
C760        C763   1.395       .  A
C761        C767   1.399       .  A
C762        C770   1.396       .  A
C763        N764   1.363       .  A
C763        H776   1.082       .  S
N764        C765   1.371       .  A
N764        C857   1.474       .  S
C765        H766   1.082       .  S
C767        N768   1.365       .  A
C767        H777   1.081       .  S
N768        C769   1.363       .  A
N768        C798   1.468       .  S
C769        H775   1.082       .  S
C770        N771   1.368       .  A
C770        H772   1.082       .  S
N771        C773   1.364       .  A
C773        H774   1.081       .  S
N778        C783   1.361       .  A
N778        C782   1.362       .  A
N778        H810   1.041       .  S
N779       C1998   1.360       .  A
N779        C787   1.359       .  A
N780        C785   1.359       .  A
N780        C784   1.359       .  A
N780        H811   1.041       .  S
N781       C2000   1.360       .  A
N781        C789   1.360       .  A
C782        C790   1.386       .  A
C782        C798   1.430       .  A
C783        C799   1.431       .  A
C783        C791   1.387       .  A
C784        C792   1.386       .  A
C784        C801   1.423       .  A
C785        C800   1.425       .  A
C785        C793   1.387       .  A
C786        C798   1.428       .  A
C786        C794   1.387       .  A
C786       N1991   1.360   1_455  A
C787        C801   1.424       .  A
C787        C795   1.384       .  A
C788        C796   1.385       .  A
C788        C799   1.426       .  A
C788       N1993   1.360   1_455  A
C789        C797   1.385       .  A
C789        C800   1.427       .  A
C790        C791   1.383       .  A
C790        H802   1.082       .  S
C791        H803   1.082       .  S
C792        C793   1.380       .  A
C792        H804   1.082       .  S
C793        H805   1.082       .  S
C794       C2007   1.378   1_455  A
C794        H806   1.082       .  S
C795       C2006   1.378       .  A
C795        H807   1.082       .  S
C796       C2009   1.377   1_455  A
C796        H808   1.081       .  S
C797       C2008   1.377       .  A
C797        H809   1.082       .  S
C799        N962   1.466       .  S
C800        N825   1.464       .  S
C801        N919   1.460       .  S
C812        C814   1.554       .  S
C812        C816   1.563       .  S
C812        C815   1.552       .  S
C812       C1147   1.514       .  S
C813        C817   1.547       .  S
C813        C819   1.530       .  S
C813        C818   1.547       .  S
C813       C1134   1.501       .  S
C814        C822   1.392       .  A
C814        C817   1.382       .  A
C815        C826   1.390       .  A
C815        C818   1.390       .  A
C816        C830   1.399       .  A
C816        C819   1.378       .  A
C817        C820   1.391       .  A
C818        C824   1.387       .  A
C819        C827   1.385       .  A
C820        N821   1.362       .  A
C820        H833   1.082       .  S
N821        C822   1.359       .  A
C822        H823   1.081       .  S
C824        N825   1.362       .  A
C824        H834   1.081       .  S
N825        C826   1.368       .  A
C826        H832   1.082       .  S
C827        N828   1.355       .  A
C827        H829   1.082       .  S
N828        C830   1.366       .  A
N828        C891   1.461       .  S
C830        H831   1.080       .  S
N835        C840   1.357       .  A
N835        C839   1.360       .  A
N835        H867   1.039       .  S
N836        C843   1.363   1_556  A
N836        C844   1.361       .  A
N837        C842   1.366       .  A
N837        C841   1.363       .  A
N837        H868   1.038       .  S
N838        C845   1.360   1_556  A
N838        C846   1.363       .  A
C839        C847   1.386       .  A
C839        C855   1.423       .  A
C840        C856   1.421       .  A
C840        C848   1.386       .  A
C841        C849   1.388       .  A
C841        C858   1.435       .  A
C842        C857   1.433       .  A
C842        C850   1.384       .  A
C843        C855   1.430       .  A
C843        C851   1.384       .  A
C844        C858   1.432       .  A
C844        C852   1.387       .  A
C845        C853   1.386       .  A
C845        C856   1.431       .  A
C846        C854   1.384       .  A
C846        C857   1.428       .  A
C847        C848   1.377       .  A
C847        H859   1.082       .  S
C848        H860   1.082       .  S
C849        C850   1.381       .  A
C849        H861   1.082       .  S
C850        H862   1.082       .  S
C851        C852   1.379   1_554  A
C851        H863   1.082       .  S
C852        H864   1.082       .  S
C853        C854   1.379   1_554  A
C853        H865   1.080       .  S
C854        H866   1.082       .  S
C856        N981   1.459       .  S
C858        N912   1.468       .  S
N869        C874   1.364       .  A
N869        C873   1.361       .  A
N869        H901   1.041       .  S
N870        C877   1.353       .  A
N870        C878   1.356   1_554  A
N871        C876   1.355       .  A
N871        C875   1.359       .  A
N871        H902   1.041       .  S
N872        C879   1.363       .  A
N872        C880   1.361   1_554  A
C873        C881   1.386       .  A
C873        C889   1.430       .  A
C874        C890   1.431       .  A
C874        C882   1.386       .  A
C875        C883   1.384       .  A
C875        C892   1.419       .  A
C876        C891   1.420       .  A
C876        C884   1.387       .  A
C877        C889   1.415       .  A
C877        C885   1.385       .  A
C878        C892   1.417       .  A
C878        C886   1.385       .  A
C879        C887   1.384       .  A
C879        C890   1.431       .  A
C880        C888   1.387       .  A
C880        C891   1.433       .  A
C881        C882   1.380       .  A
C881        H893   1.081       .  S
C882        H894   1.082       .  S
C883        C884   1.377       .  A
C883        H895   1.082       .  S
C884        H896   1.082       .  S
C885        C886   1.376   1_554  A
C885        H897   1.082       .  S
C886        H898   1.082       .  S
C887        C888   1.381   1_554  A
C887        H899   1.082       .  S
C888        H900   1.082       .  S
C890        N942   1.473       .  S
C892        N958   1.456       .  S
C903        C905   1.558       .  S
C903        C907   1.549       .  S
C903        C906   1.539       .  S
C903       C1127   1.505       .  S
C904        C908   1.542       .  S
C904        C910   1.559       .  S
C904        C909   1.547       .  S
C904       C1114   1.505       .  S
C905        C913   1.397       .  A
C905        C908   1.383       .  A
C906        C917   1.388       .  A
C906        C909   1.376       .  A
C907        C921   1.388       .  A
C907        C910   1.389       .  A
C908        C911   1.389       .  A
C909        C915   1.392       .  A
C910        C918   1.394       .  A
C911        N912   1.364       .  A
C911        H924   1.082       .  S
N912        C913   1.366       .  A
C913        H914   1.081       .  S
C915        N916   1.361       .  A
C915        H925   1.081       .  S
N916        C917   1.363       .  A
C917        H923   1.082       .  S
C918        N919   1.364       .  A
C918        H920   1.082       .  S
N919        C921   1.360       .  A
C921        H922   1.082       .  S
C926        C928   1.539       .  S
C926        C930   1.555       .  S
C926        C929   1.552       .  S
C926       C1094   1.510       .  S
C927        C931   1.536       .  S
C927        C933   1.560       .  S
C927        C932   1.560       .  S
C927       C1104   1.513       .  S
C928        C936   1.390       .  A
C928        C931   1.371       .  A
C929        C940   1.388       .  A
C929        C932   1.395       .  A
C930        C944   1.395       .  A
C930        C933   1.387       .  A
C931        C934   1.388       .  A
C932        C938   1.396       .  A
C933        C941   1.396       .  A
C934        N935   1.362       .  A
C934        H947   1.082       .  S
N935        C936   1.366       .  A
C936        H937   1.082       .  S
C938        N939   1.364       .  A
C938        H948   1.081       .  S
N939        C940   1.357       .  A
C940        H946   1.081       .  S
C941        N942   1.369       .  A
C941        H943   1.082       .  S
N942        C944   1.366       .  A
C944        H945   1.082       .  S
C949        C951   1.547       .  S
C949        C953   1.561       .  S
C949        C952   1.537       .  S
C949       C1077   1.499       .  S
C950        C954   1.549       .  S
C950        C956   1.541       .  S
C950        C955   1.562       .  S
C950       C1084   1.498       .  S
C951        C959   1.389       .  A
C951        C954   1.379       .  A
C952        C963   1.384       .  A
C952        C955   1.382       .  A
C953        C967   1.401       .  A
C953        C956   1.381       .  A
C954        C957   1.392       .  A
C955        C961   1.401       .  A
C956        C964   1.387       .  A
C957        N958   1.360       .  A
C957        H970   1.082       .  S
N958        C959   1.359       .  A
C959        H960   1.082       .  S
C961        N962   1.370       .  A
C961        H971   1.081       .  S
N962        C963   1.359       .  A
C963        H969   1.082       .  S
C964        N965   1.363       .  A
C964        H966   1.082       .  S
N965        C967   1.371       .  A
C967        H968   1.082       .  S
C972        C974   1.553       .  S
C972        C976   1.547       .  S
C972        C975   1.555       .  S
C972       C1064   1.500       .  S
C973        C977   1.546       .  S
C973        C979   1.557       .  S
C973        C978   1.544       .  S
C973       C1054   1.495       .  S
C974        C982   1.395       .  A
C974        C977   1.375       .  A
C975        C986   1.397       .  A
C975        C978   1.384       .  A
C976        C990   1.388       .  A
C976        C979   1.382       .  A
C977        C980   1.389       .  A
C978        C984   1.388       .  A
C979        C987   1.401       .  A
C980        N981   1.356       .  A
C980        H993   1.082       .  S
N981        C982   1.365       .  A
C982        H983   1.082       .  S
C984        N985   1.363       .  A
C984        H994   1.082       .  S
N985        C986   1.366       .  A
C986        H992   1.081       .  S
C987        N988   1.367       .  A
C987        H989   1.080       .  S
N988        C990   1.362       .  A
C990        H991   1.082       .  S
O995       C1003   1.251       .  A
O995      Co2227   1.976   1_455  S
O996       C1004   1.254       .  A
O996      Co1016   1.944       .  S
O997       C1005   1.265       .  A
O997      Co1017   2.009       .  S
O998       C1006   1.234       .  A
O998      Co1018   1.933       .  S
O999       C1005   1.246       .  A
O999      Co2228   1.930   1_455  S
O1000      C1006   1.249       .  A
O1000     Co1015   1.986       .  S
O1001      C1004   1.265       .  A
O1001     Co1018   1.990   1_556  S
O1002      C1003   1.245       .  A
O1002     Co1017   1.943   1_554  S
C1003      C1207   1.456       .  S
C1004      C1137   1.440       .  S
C1005      C1087   1.448       .  S
C1006      C1097   1.444       .  S
O1007      C1020   1.281       .  A
O1008      C1021   1.267       .  A
O1008     Co1622   2.022   1_465  S
O1009      C1022   1.271       .  A
O1010      C1023   1.249       .  A
O1011      C1023   1.262       .  A
O1012      C1022   1.281       .  A
O1012     Co1621   2.020   1_455  S
O1013      C1020   1.270       .  A
O1014      C1021   1.249       .  A
Co1015     O2207   1.976       .  S
Co1015     O1618   2.020       .  S
Co1015     O1019   2.205   1_554  S
Co1016     O2211   1.930       .  S
Co1016     O1614   2.022       .  S
Co1016     O1019   2.050       .  S
Co1017     O2231   1.945   1_455  S
Co1018     O1019   1.922   1_554  S
O1019     Co2229   1.945       .  S
C1020      C1184   1.452       .  S
C1021      C1157   1.465       .  S
C1022      C1057   1.432       .  S
C1023      C1124   1.436       .  S
O1024      C1032   1.256       .  A
O1024     Co1044   1.991       .  S
O1025      C1033   1.275       .  A
O1025     Co1045   2.011       .  S
O1026      C1034   1.243       .  A
O1026     Co1046   1.917       .  S
O1027      C1035   1.263       .  A
O1027     Co1047   1.872       .  S
O1028      C1034   1.273       .  A
O1028     Co1045   2.028       .  S
O1029      C1035   1.289       .  A
O1029     Co1044   2.090       .  S
O1030      C1033   1.261       .  A
O1030     Co1047   1.940       .  S
O1031      C1032   1.242       .  A
O1031     Co1046   1.946       .  S
C1032      C1197   1.447       .  S
C1033      C1164   1.444       .  S
C1034      C1074   1.452       .  S
C1035      C1067   1.434       .  S
O1036      C1049   1.265       .  A
O1036     Co1044   1.871       .  S
O1037      C1050   1.249       .  A
O1037     Co1045   1.928       .  S
O1038      C1051   1.281       .  A
O1038     Co1046   2.024       .  S
O1039      C1052   1.259       .  A
O1039     Co1047   1.996       .  S
O1040      C1052   1.247       .  A
O1040     Co1045   1.946       .  S
O1041      C1051   1.267       .  A
O1041     Co1044   1.948       .  S
O1042      C1049   1.286       .  A
O1042     Co1047   2.061       .  S
O1043      C1050   1.273       .  A
O1043     Co1046   2.034       .  S
Co1044     O1048   1.967       .  S
Co1045     O1048   1.980       .  S
Co1046     O1048   1.967       .  S
Co1047     O1048   1.965       .  S
C1049      C1174   1.435       .  S
C1050      C1144   1.443       .  S
C1051      C1107   1.465       .  S
C1052      C1117   1.455       .  S
C1053      C1054   1.411       .  A
C1053      C1058   1.380       .  A
C1053      F1060   1.358       .  S
C1054      C1055   1.398       .  A
C1055      C1056   1.383       .  A
C1055      F1062   1.354       .  S
C1056      C1057   1.402       .  A
C1056      F1061   1.355       .  S
C1057      C1058   1.392       .  A
C1058      F1059   1.354       .  S
C1063      C1064   1.411       .  A
C1063      C1068   1.390       .  A
C1063      F1070   1.354       .  S
C1064      C1065   1.413       .  A
C1065      C1066   1.378       .  A
C1065      F1072   1.358       .  S
C1066      C1067   1.390       .  A
C1066      F1071   1.357       .  S
C1067      C1068   1.396       .  A
C1068      F1069   1.358       .  S
C1073      C1074   1.393       .  A
C1073      C1078   1.387       .  A
C1073      F1080   1.358       .  S
C1074      C1075   1.413       .  A
C1075      C1076   1.380       .  A
C1075      F1082   1.359       .  S
C1076      C1077   1.399       .  A
C1076      F1081   1.357       .  S
C1077      C1078   1.416       .  A
C1078      F1079   1.357       .  S
C1083      C1084   1.398       .  A
C1083      C1088   1.381       .  A
C1083      F1090   1.356       .  S
C1084      C1085   1.415       .  A
C1085      C1086   1.387       .  A
C1085      F1092   1.358       .  S
C1086      C1087   1.394       .  A
C1086      F1091   1.358       .  S
C1087      C1088   1.410       .  A
C1088      F1089   1.359       .  S
C1093      C1094   1.413       .  A
C1093      C1098   1.386       .  A
C1093      F1100   1.354       .  S
C1094      C1095   1.413       .  A
C1095      C1096   1.389       .  A
C1095      F1102   1.358       .  S
C1096      C1097   1.397       .  A
C1096      F1101   1.358       .  S
C1097      C1098   1.390       .  A
C1098      F1099   1.352       .  S
C1103      C1104   1.413       .  A
C1103      C1108   1.389       .  A
C1103      F1110   1.358       .  S
C1104      C1105   1.412       .  A
C1105      C1106   1.393       .  A
C1105      F1112   1.354       .  S
C1106      C1107   1.403       .  A
C1106      F1111   1.358       .  S
C1107      C1108   1.399       .  A
C1108      F1109   1.356       .  S
C1113      C1114   1.402       .  A
C1113      C1118   1.385       .  A
C1113      F1120   1.357       .  S
C1114      C1115   1.412       .  A
C1115      C1116   1.388       .  A
C1115      F1122   1.357       .  S
C1116      C1117   1.399       .  A
C1116      F1121   1.358       .  S
C1117      C1118   1.409       .  A
C1118      F1119   1.359       .  S
C1123      C1124   1.391       .  A
C1123      C1128   1.388       .  A
C1123      F1130   1.355       .  S
C1124      C1125   1.395       .  A
C1125      C1126   1.382       .  A
C1125      F1132   1.357       .  S
C1126      C1127   1.409       .  A
C1126      F1131   1.355       .  S
C1127      C1128   1.416       .  A
C1128      F1129   1.357       .  S
C1133      C1134   1.416       .  A
C1133      C1138   1.380       .  A
C1133      F1140   1.357       .  S
C1134      C1135   1.411       .  A
C1135      C1136   1.386       .  A
C1135      F1142   1.355       .  S
C1136      C1137   1.399       .  A
C1136      F1141   1.359       .  S
C1137      C1138   1.394       .  A
C1138      F1139   1.357       .  S
C1143      C1144   1.403       .  A
C1143      C1148   1.387       .  A
C1143      F1150   1.357       .  S
C1144      C1145   1.399       .  A
C1145      C1146   1.393       .  A
C1145      F1152   1.357       .  S
C1146      C1147   1.410       .  A
C1146      F1151   1.358       .  S
C1147      C1148   1.400       .  A
C1148      F1149   1.356       .  S
C1153      C1154   1.416       .  A
C1153      C1158   1.389       .  A
C1153      F1160   1.356       .  S
C1154      C1155   1.406       .  A
C1155      C1156   1.390       .  A
C1155      F1162   1.357       .  S
C1156      C1157   1.405       .  A
C1156      F1161   1.352       .  S
C1157      C1158   1.397       .  A
C1158      F1159   1.358       .  S
C1163      C1164   1.398       .  A
C1163      C1168   1.387       .  A
C1163      F1170   1.359       .  S
C1164      C1165   1.400       .  A
C1165      C1166   1.385       .  A
C1165      F1172   1.359       .  S
C1166      C1167   1.408       .  A
C1166      F1171   1.358       .  S
C1167      C1168   1.410       .  A
C1168      F1169   1.356       .  S
C1173      C1174   1.400       .  A
C1173      C1178   1.379       .  A
C1173      F1180   1.359       .  S
C1174      C1175   1.393       .  A
C1175      C1176   1.382       .  A
C1175      F1182   1.359       .  S
C1176      C1177   1.413       .  A
C1176      F1181   1.356       .  S
C1177      C1178   1.405       .  A
C1178      F1179   1.355       .  S
C1183      C1184   1.412       .  A
C1183      C1188   1.384       .  A
C1183      F1190   1.359       .  S
C1184      C1185   1.401       .  A
C1185      C1186   1.380       .  A
C1185      F1192   1.358       .  S
C1186      C1187   1.407       .  A
C1186      F1191   1.359       .  S
C1187      C1188   1.398       .  A
C1188      F1189   1.356       .  S
C1193      C1194   1.405       .  A
C1193      C1198   1.380       .  A
C1193      F1200   1.358       .  S
C1194      C1195   1.405       .  A
C1195      C1196   1.389       .  A
C1195      F1202   1.356       .  S
C1196      C1197   1.406       .  A
C1196      F1201   1.359       .  S
C1197      C1198   1.396       .  A
C1198      F1199   1.354       .  S
C1203      C1204   1.412       .  A
C1203      C1208   1.387       .  A
C1203      F1210   1.355       .  S
C1204      C1205   1.409       .  A
C1205      C1206   1.391       .  A
C1205      F1212   1.358       .  S
C1206      C1207   1.400       .  A
C1206      F1211   1.353       .  S
C1207      C1208   1.398       .  A
C1208      F1209   1.359       .  S
C1213      C1215   1.557       .  S
C1213      C1217   1.543       .  S
C1213      C1216   1.559       .  S
C1213      C1810   1.509       .  S
C1214      C1218   1.545       .  S
C1214      C1220   1.538       .  S
C1214      C1219   1.552       .  S
C1214      C1800   1.502       .  S
C1215      C1223   1.394       .  A
C1215      C1218   1.384       .  A
C1216      C1227   1.396       .  A
C1216      C1219   1.391       .  A
C1217      C1231   1.389       .  A
C1217      C1220   1.375       .  A
C1218      C1221   1.388       .  A
C1219      C1225   1.390       .  A
C1220      C1228   1.391       .  A
C1221      N1222   1.354       .  A
C1221      H1234   1.082       .  S
N1222      C1223   1.362       .  A
N1222      C1495   1.455       .  S
C1223      H1224   1.081       .  S
C1225      N1226   1.360       .  A
C1225      H1235   1.080       .  S
N1226      C1227   1.367       .  A
N1226      C1256   1.465       .  S
C1227      H1233   1.082       .  S
C1228      N1229   1.368       .  A
C1228      H1230   1.082       .  S
N1229      C1231   1.367       .  A
N1229      C1313   1.469       .  S
C1231      H1232   1.082       .  S
N1236      C1241   1.361       .  A
N1236      H1268   1.041       .  S
N1237      C1244   1.360       .  A
N1237      C1245   1.360       .  A
N1238      C1243   1.359       .  A
N1238      H1269   1.041       .  S
N1239      C1246   1.357       .  A
N1239      C1247   1.356       .  A
C1240      C1248   1.386       .  A
C1240      C1256   1.427       .  A
C1241      C1257   1.428       .  A
C1241      C1249   1.386       .  A
C1242      C1250   1.387       .  A
C1242      C1259   1.428       .  A
C1243      C1258   1.423       .  A
C1243      C1251   1.385       .  A
C1244      C1256   1.429       .  A
C1244      C1252   1.386       .  A
C1245      C1259   1.427       .  A
C1245      C1253   1.385       .  A
C1246      C1254   1.384       .  A
C1246      C1257   1.418       .  A
C1247      C1255   1.385       .  A
C1247      C1258   1.421       .  A
C1248      H1260   1.082       .  S
C1249      H1261   1.082       .  S
C1250      H1262   1.082       .  S
C1251      H1263   1.082       .  S
C1252      C1253   1.379       .  A
C1252      H1264   1.082       .  S
C1253      H1265   1.082       .  S
C1254      C1255   1.376       .  A
C1254      H1266   1.082       .  S
C1255      H1267   1.080       .  S
C1257      N1545   1.460       .  S
C1258      N1286   1.458       .  S
C1259      N1591   1.466       .  S
C1270      C1272   1.546       .  S
C1270      C1274   1.550       .  S
C1270      C1273   1.556       .  S
C1270      C1783   1.495       .  S
C1271      C1275   1.546       .  S
C1271      C1277   1.554       .  S
C1271      C1276   1.537       .  S
C1271      C1793   1.493       .  S
C1272      C1280   1.395       .  A
C1272      C1275   1.371       .  A
C1273      C1284   1.398       .  A
C1273      C1276   1.381       .  A
C1274      C1288   1.388       .  A
C1274      C1277   1.387       .  A
C1275      C1278   1.392       .  A
C1276      C1282   1.385       .  A
C1277      C1285   1.393       .  A
C1278      N1279   1.360       .  A
C1278      H1291   1.081       .  S
N1279      C1280   1.368       .  A
N1279      C1461   1.467       .  S
C1280      H1281   1.082       .  S
C1282      N1283   1.362       .  A
C1282      H1292   1.082       .  S
N1283      C1284   1.365       .  A
N1283      C1347   1.465       .  S
C1284      H1290   1.081       .  S
C1285      N1286   1.362       .  A
C1285      H1287   1.081       .  S
N1286      C1288   1.360       .  A
C1288      H1289   1.082       .  S
N1293      C1904   1.362   1_545  A
N1293      C1297   1.362       .  A
N1293      H1325   1.040       .  S
N1294      C1301   1.362       .  A
N1294      C1302   1.362       .  A
N1295      C1906   1.365   1_545  A
N1295      C1299   1.364       .  A
N1295      H1326   1.040       .  S
N1296      C1303   1.362       .  A
N1296      C1304   1.362       .  A
C1297      C1305   1.387       .  A
C1297      C1313   1.431       .  A
C1298      C1314   1.431       .  A
C1298      C1306   1.386       .  A
C1298      N1899   1.362       .  A
C1299      C1307   1.386       .  A
C1299      C1316   1.434       .  A
C1300      C1315   1.434       .  A
C1300      C1308   1.386       .  A
C1300      N1901   1.365       .  A
C1301      C1313   1.432       .  A
C1301      C1309   1.386       .  A
C1302      C1316   1.430       .  A
C1302      C1310   1.385       .  A
C1303      C1311   1.386       .  A
C1303      C1314   1.431       .  A
C1304      C1312   1.385       .  A
C1304      C1315   1.430       .  A
C1305      C1912   1.381   1_545  A
C1305      H1317   1.082       .  S
C1306      C1911   1.381       .  A
C1306      H1318   1.082       .  S
C1307      C1914   1.381   1_545  A
C1307      H1319   1.082       .  S
C1308      C1913   1.381       .  A
C1308      H1320   1.082       .  S
C1309      C1310   1.377       .  A
C1309      H1321   1.081       .  S
C1310      H1322   1.081       .  S
C1311      C1312   1.377       .  A
C1311      H1323   1.082       .  S
C1312      H1324   1.082       .  S
C1314      N1594   1.469       .  S
C1315      N1377   1.473       .  S
C1316      N1571   1.471       .  S
N1327      C1332   1.360       .  A
N1327      C1937   1.361   1_545  A
N1327      H1359   1.040       .  S
N1328      C1335   1.360       .  A
N1328      C1336   1.360       .  A
N1329      C1334   1.358       .  A
N1329      C1939   1.359   1_545  A
N1329      H1360   1.040       .  S
N1330      C1337   1.360       .  A
N1330      C1338   1.359       .  A
C1331      C1339   1.387       .  A
C1331      C1347   1.429       .  A
C1331      N1933   1.361       .  A
C1332      C1348   1.425       .  A
C1332      C1340   1.385       .  A
C1333      C1341   1.387       .  A
C1333      C1350   1.424       .  A
C1333      N1935   1.359       .  A
C1334      C1349   1.420       .  A
C1334      C1342   1.385       .  A
C1335      C1347   1.427       .  A
C1335      C1343   1.385       .  A
C1336      C1350   1.426       .  A
C1336      C1344   1.385       .  A
C1337      C1345   1.386       .  A
C1337      C1348   1.427       .  A
C1338      C1346   1.384       .  A
C1338      C1349   1.425       .  A
C1339      C1946   1.377       .  A
C1339      H1351   1.081       .  S
C1340      C1945   1.377   1_545  A
C1340      H1352   1.082       .  S
C1341      C1948   1.376       .  A
C1341      H1353   1.081       .  S
C1342      C1947   1.376   1_545  A
C1342      H1354   1.082       .  S
C1343      C1344   1.378       .  A
C1343      H1355   1.082       .  S
C1344      H1356   1.082       .  S
C1345      C1346   1.377       .  A
C1345      H1357   1.082       .  S
C1346      H1358   1.082       .  S
C1348      N1541   1.463       .  S
C1349      N1427   1.459       .  S
C1350      N1522   1.461       .  S
C1361      C1363   1.568       .  S
C1361      C1365   1.556       .  S
C1361      C1364   1.543       .  S
C1361      C1760   1.510       .  S
C1362      C1366   1.559       .  S
C1362      C1368   1.548       .  S
C1362      C1367   1.555       .  S
C1362      C1773   1.504       .  S
C1363      C1371   1.404       .  A
C1363      C1366   1.389       .  A
C1364      C1375   1.390       .  A
C1364      C1367   1.378       .  A
C1365      C1379   1.396       .  A
C1365      C1368   1.378       .  A
C1366      C1369   1.395       .  A
C1367      C1373   1.399       .  A
C1368      C1376   1.396       .  A
C1369      N1370   1.363       .  A
C1369      H1382   1.082       .  S
N1370      C1371   1.371       .  A
N1370      C1463   1.474       .  S
C1371      H1372   1.082       .  S
C1373      N1374   1.365       .  A
C1373      H1383   1.081       .  S
N1374      C1375   1.363       .  A
N1374      C1404   1.468       .  S
C1375      H1381   1.082       .  S
C1376      N1377   1.368       .  A
C1376      H1378   1.082       .  S
N1377      C1379   1.364       .  A
C1379      H1380   1.081       .  S
N1384      C1389   1.361       .  A
N1384      C1388   1.362       .  A
N1384      H1416   1.041       .  S
N1385      C1393   1.359       .  A
N1386      C1391   1.359       .  A
N1386      C1390   1.359       .  A
N1386      H1417   1.041       .  S
N1387      C1395   1.360       .  A
C1388      C1396   1.386       .  A
C1388      C1404   1.430       .  A
C1389      C1405   1.431       .  A
C1389      C1397   1.387       .  A
C1390      C1398   1.386       .  A
C1390      C1407   1.423       .  A
C1391      C1406   1.425       .  A
C1391      C1399   1.387       .  A
C1392      C1404   1.428       .  A
C1392      C1400   1.387       .  A
C1393      C1407   1.424       .  A
C1393      C1401   1.384       .  A
C1394      C1402   1.385       .  A
C1394      C1405   1.426       .  A
C1395      C1403   1.385       .  A
C1395      C1406   1.427       .  A
C1396      C1397   1.383       .  A
C1396      H1408   1.082       .  S
C1397      H1409   1.082       .  S
C1398      C1399   1.380       .  A
C1398      H1410   1.082       .  S
C1399      H1411   1.082       .  S
C1400      H1412   1.082       .  S
C1401      H1413   1.082       .  S
C1402      H1414   1.081       .  S
C1403      H1415   1.082       .  S
C1405      N1568   1.466       .  S
C1406      N1431   1.464       .  S
C1407      N1525   1.460       .  S
C1418      C1420   1.554       .  S
C1418      C1422   1.563       .  S
C1418      C1421   1.552       .  S
C1418      C1753   1.514       .  S
C1419      C1423   1.547       .  S
C1419      C1425   1.530       .  S
C1419      C1424   1.547       .  S
C1419      C1740   1.501       .  S
C1420      C1428   1.392       .  A
C1420      C1423   1.382       .  A
C1421      C1432   1.390       .  A
C1421      C1424   1.390       .  A
C1422      C1436   1.399       .  A
C1422      C1425   1.378       .  A
C1423      C1426   1.391       .  A
C1424      C1430   1.387       .  A
C1425      C1433   1.385       .  A
C1426      N1427   1.362       .  A
C1426      H1439   1.082       .  S
N1427      C1428   1.359       .  A
C1428      H1429   1.081       .  S
C1430      N1431   1.362       .  A
C1430      H1440   1.081       .  S
N1431      C1432   1.368       .  A
C1432      H1438   1.082       .  S
C1433      N1434   1.355       .  A
C1433      H1435   1.082       .  S
N1434      C1436   1.366       .  A
N1434      C1497   1.461       .  S
C1436      H1437   1.080       .  S
N1441      C1446   1.357       .  A
N1441      C1445   1.360       .  A
N1441      H1473   1.039       .  S
N1442      C1449   1.363   1_556  A
N1442      C1450   1.361       .  A
N1443      C1448   1.366       .  A
N1443      C1447   1.363       .  A
N1443      H1474   1.038       .  S
N1444      C1451   1.360   1_556  A
N1444      C1452   1.363       .  A
C1445      C1453   1.386       .  A
C1445      C1461   1.423       .  A
C1446      C1462   1.421       .  A
C1446      C1454   1.386       .  A
C1447      C1455   1.388       .  A
C1447      C1464   1.435       .  A
C1448      C1463   1.433       .  A
C1448      C1456   1.384       .  A
C1449      C1461   1.430       .  A
C1449      C1457   1.384       .  A
C1450      C1464   1.432       .  A
C1450      C1458   1.387       .  A
C1451      C1459   1.386       .  A
C1451      C1462   1.431       .  A
C1452      C1460   1.384       .  A
C1452      C1463   1.428       .  A
C1453      C1454   1.377       .  A
C1453      H1465   1.082       .  S
C1454      H1466   1.082       .  S
C1455      C1456   1.381       .  A
C1455      H1467   1.082       .  S
C1456      H1468   1.082       .  S
C1457      C1458   1.379   1_554  A
C1457      H1469   1.082       .  S
C1458      H1470   1.082       .  S
C1459      C1460   1.379   1_554  A
C1459      H1471   1.080       .  S
C1460      H1472   1.082       .  S
C1462      N1587   1.459       .  S
C1464      N1518   1.468       .  S
N1475      C1480   1.364       .  A
N1475      C1479   1.361       .  A
N1475      H1507   1.041       .  S
N1476      C1483   1.353       .  A
N1476      C1484   1.356   1_554  A
N1477      C1482   1.355       .  A
N1477      C1481   1.359       .  A
N1477      H1508   1.041       .  S
N1478      C1485   1.363       .  A
N1478      C1486   1.361   1_554  A
C1479      C1487   1.386       .  A
C1479      C1495   1.430       .  A
C1480      C1496   1.431       .  A
C1480      C1488   1.386       .  A
C1481      C1489   1.384       .  A
C1481      C1498   1.419       .  A
C1482      C1497   1.420       .  A
C1482      C1490   1.387       .  A
C1483      C1495   1.415       .  A
C1483      C1491   1.385       .  A
C1484      C1498   1.417       .  A
C1484      C1492   1.385       .  A
C1485      C1493   1.384       .  A
C1485      C1496   1.431       .  A
C1486      C1494   1.387       .  A
C1486      C1497   1.433       .  A
C1487      C1488   1.380       .  A
C1487      H1499   1.081       .  S
C1488      H1500   1.082       .  S
C1489      C1490   1.377       .  A
C1489      H1501   1.082       .  S
C1490      H1502   1.082       .  S
C1491      C1492   1.376   1_554  A
C1491      H1503   1.082       .  S
C1492      H1504   1.082       .  S
C1493      C1494   1.381   1_554  A
C1493      H1505   1.082       .  S
C1494      H1506   1.082       .  S
C1496      N1548   1.473       .  S
C1498      N1564   1.456       .  S
C1509      C1511   1.558       .  S
C1509      C1513   1.549       .  S
C1509      C1512   1.539       .  S
C1509      C1733   1.505       .  S
C1510      C1514   1.542       .  S
C1510      C1516   1.559       .  S
C1510      C1515   1.547       .  S
C1510      C1720   1.505       .  S
C1511      C1519   1.397       .  A
C1511      C1514   1.383       .  A
C1512      C1523   1.388       .  A
C1512      C1515   1.376       .  A
C1513      C1527   1.388       .  A
C1513      C1516   1.389       .  A
C1514      C1517   1.389       .  A
C1515      C1521   1.392       .  A
C1516      C1524   1.394       .  A
C1517      N1518   1.364       .  A
C1517      H1530   1.082       .  S
N1518      C1519   1.366       .  A
C1519      H1520   1.081       .  S
C1521      N1522   1.361       .  A
C1521      H1531   1.081       .  S
N1522      C1523   1.363       .  A
C1523      H1529   1.082       .  S
C1524      N1525   1.364       .  A
C1524      H1526   1.082       .  S
N1525      C1527   1.360       .  A
C1527      H1528   1.082       .  S
C1532      C1534   1.539       .  S
C1532      C1536   1.555       .  S
C1532      C1535   1.552       .  S
C1532      C1700   1.510       .  S
C1533      C1537   1.536       .  S
C1533      C1539   1.560       .  S
C1533      C1538   1.560       .  S
C1533      C1710   1.513       .  S
C1534      C1542   1.390       .  A
C1534      C1537   1.371       .  A
C1535      C1546   1.388       .  A
C1535      C1538   1.395       .  A
C1536      C1550   1.395       .  A
C1536      C1539   1.387       .  A
C1537      C1540   1.388       .  A
C1538      C1544   1.396       .  A
C1539      C1547   1.396       .  A
C1540      N1541   1.362       .  A
C1540      H1553   1.082       .  S
N1541      C1542   1.366       .  A
C1542      H1543   1.082       .  S
C1544      N1545   1.364       .  A
C1544      H1554   1.081       .  S
N1545      C1546   1.357       .  A
C1546      H1552   1.081       .  S
C1547      N1548   1.369       .  A
C1547      H1549   1.082       .  S
N1548      C1550   1.366       .  A
C1550      H1551   1.082       .  S
C1555      C1557   1.547       .  S
C1555      C1559   1.561       .  S
C1555      C1558   1.537       .  S
C1555      C1683   1.499       .  S
C1556      C1560   1.549       .  S
C1556      C1562   1.541       .  S
C1556      C1561   1.562       .  S
C1556      C1690   1.498       .  S
C1557      C1565   1.389       .  A
C1557      C1560   1.379       .  A
C1558      C1569   1.384       .  A
C1558      C1561   1.382       .  A
C1559      C1573   1.401       .  A
C1559      C1562   1.381       .  A
C1560      C1563   1.392       .  A
C1561      C1567   1.401       .  A
C1562      C1570   1.387       .  A
C1563      N1564   1.360       .  A
C1563      H1576   1.082       .  S
N1564      C1565   1.359       .  A
C1565      H1566   1.082       .  S
C1567      N1568   1.370       .  A
C1567      H1577   1.081       .  S
N1568      C1569   1.359       .  A
C1569      H1575   1.082       .  S
C1570      N1571   1.363       .  A
C1570      H1572   1.082       .  S
N1571      C1573   1.371       .  A
C1573      H1574   1.082       .  S
C1578      C1580   1.553       .  S
C1578      C1582   1.547       .  S
C1578      C1581   1.555       .  S
C1578      C1670   1.500       .  S
C1579      C1583   1.546       .  S
C1579      C1585   1.557       .  S
C1579      C1584   1.544       .  S
C1579      C1660   1.495       .  S
C1580      C1588   1.395       .  A
C1580      C1583   1.375       .  A
C1581      C1592   1.397       .  A
C1581      C1584   1.384       .  A
C1582      C1596   1.388       .  A
C1582      C1585   1.382       .  A
C1583      C1586   1.389       .  A
C1584      C1590   1.388       .  A
C1585      C1593   1.401       .  A
C1586      N1587   1.356       .  A
C1586      H1599   1.082       .  S
N1587      C1588   1.365       .  A
C1588      H1589   1.082       .  S
C1590      N1591   1.363       .  A
C1590      H1600   1.082       .  S
N1591      C1592   1.366       .  A
C1592      H1598   1.081       .  S
C1593      N1594   1.367       .  A
C1593      H1595   1.080       .  S
N1594      C1596   1.362       .  A
C1596      H1597   1.082       .  S
O1601      C1609   1.251       .  A
O1602      C1610   1.254       .  A
O1602     Co1622   1.944       .  S
O1603      C1611   1.265       .  A
O1603     Co1623   2.009   1_545  S
O1604      C1612   1.234       .  A
O1604     Co1624   1.933   1_545  S
O1605      C1611   1.246       .  A
O1606      C1612   1.249       .  A
O1606     Co1621   1.986   1_545  S
O1607      C1610   1.265       .  A
O1607     Co1624   1.990   1_546  S
O1608      C1609   1.245       .  A
O1608     Co1623   1.943   1_544  S
C1609      C1813   1.456       .  S
C1610      C1743   1.440       .  S
C1611      C1693   1.448       .  S
C1612      C1703   1.444       .  S
O1613      C1626   1.281       .  A
O1613     Co2227   2.020       .  S
O1614      C1627   1.267       .  A
O1615      C1628   1.271       .  A
O1615     Co2229   1.900   1_554  S
O1616      C1629   1.249       .  A
O1616     Co2230   1.960   1_556  S
O1617      C1629   1.262       .  A
O1617     Co2228   2.002       .  S
O1618      C1628   1.281       .  A
O1619      C1626   1.270       .  A
O1619     Co2230   1.889       .  S
O1620      C1627   1.249       .  A
O1620     Co2229   1.960       .  S
Co1621     O2219   2.020       .  S
Co1621     O1625   2.205   1_564  S
Co1622     O2223   2.002   1_545  S
Co1622     O1625   2.050       .  S
Co1623     O2221   1.900   1_556  S
Co1623     O2226   1.960       .  S
Co1624     O2222   1.960   1_554  S
Co1624     O2225   1.889       .  S
Co1624     O1625   1.922   1_564  S
C1626      C1790   1.452       .  S
C1627      C1763   1.465       .  S
C1628      C1663   1.432       .  S
C1629      C1730   1.436       .  S
O1630      C1638   1.256       .  A
O1630     Co1650   1.991       .  S
O1631      C1639   1.275       .  A
O1631     Co1651   2.011       .  S
O1632      C1640   1.243       .  A
O1632     Co1652   1.917       .  S
O1633      C1641   1.263       .  A
O1633     Co1653   1.872       .  S
O1634      C1640   1.273       .  A
O1634     Co1651   2.028       .  S
O1635      C1641   1.289       .  A
O1635     Co1650   2.090       .  S
O1636      C1639   1.261       .  A
O1636     Co1653   1.940       .  S
O1637      C1638   1.242       .  A
O1637     Co1652   1.946       .  S
C1638      C1803   1.447       .  S
C1639      C1770   1.444       .  S
C1640      C1680   1.452       .  S
C1641      C1673   1.434       .  S
O1642      C1655   1.265       .  A
O1642     Co1650   1.871       .  S
O1643      C1656   1.249       .  A
O1643     Co1651   1.928       .  S
O1644      C1657   1.281       .  A
O1644     Co1652   2.024       .  S
O1645      C1658   1.259       .  A
O1645     Co1653   1.996       .  S
O1646      C1658   1.247       .  A
O1646     Co1651   1.946       .  S
O1647      C1657   1.267       .  A
O1647     Co1650   1.948       .  S
O1648      C1655   1.286       .  A
O1648     Co1653   2.061       .  S
O1649      C1656   1.273       .  A
O1649     Co1652   2.034       .  S
Co1650     O1654   1.967       .  S
Co1651     O1654   1.980       .  S
Co1652     O1654   1.967       .  S
Co1653     O1654   1.965       .  S
C1655      C1780   1.435       .  S
C1656      C1750   1.443       .  S
C1657      C1713   1.465       .  S
C1658      C1723   1.455       .  S
C1659      C1660   1.411       .  A
C1659      C1664   1.380       .  A
C1659      F1666   1.358       .  S
C1660      C1661   1.398       .  A
C1661      C1662   1.383       .  A
C1661      F1668   1.354       .  S
C1662      C1663   1.402       .  A
C1662      F1667   1.355       .  S
C1663      C1664   1.392       .  A
C1664      F1665   1.354       .  S
C1669      C1670   1.411       .  A
C1669      C1674   1.390       .  A
C1669      F1676   1.354       .  S
C1670      C1671   1.413       .  A
C1671      C1672   1.378       .  A
C1671      F1678   1.358       .  S
C1672      C1673   1.390       .  A
C1672      F1677   1.357       .  S
C1673      C1674   1.396       .  A
C1674      F1675   1.358       .  S
C1679      C1680   1.393       .  A
C1679      C1684   1.387       .  A
C1679      F1686   1.358       .  S
C1680      C1681   1.413       .  A
C1681      C1682   1.380       .  A
C1681      F1688   1.359       .  S
C1682      C1683   1.399       .  A
C1682      F1687   1.357       .  S
C1683      C1684   1.416       .  A
C1684      F1685   1.357       .  S
C1689      C1690   1.398       .  A
C1689      C1694   1.381       .  A
C1689      F1696   1.356       .  S
C1690      C1691   1.415       .  A
C1691      C1692   1.387       .  A
C1691      F1698   1.358       .  S
C1692      C1693   1.394       .  A
C1692      F1697   1.358       .  S
C1693      C1694   1.410       .  A
C1694      F1695   1.359       .  S
C1699      C1700   1.413       .  A
C1699      C1704   1.386       .  A
C1699      F1706   1.354       .  S
C1700      C1701   1.413       .  A
C1701      C1702   1.389       .  A
C1701      F1708   1.358       .  S
C1702      C1703   1.397       .  A
C1702      F1707   1.358       .  S
C1703      C1704   1.390       .  A
C1704      F1705   1.352       .  S
C1709      C1710   1.413       .  A
C1709      C1714   1.389       .  A
C1709      F1716   1.358       .  S
C1710      C1711   1.412       .  A
C1711      C1712   1.393       .  A
C1711      F1718   1.354       .  S
C1712      C1713   1.403       .  A
C1712      F1717   1.358       .  S
C1713      C1714   1.399       .  A
C1714      F1715   1.356       .  S
C1719      C1720   1.402       .  A
C1719      C1724   1.385       .  A
C1719      F1726   1.357       .  S
C1720      C1721   1.412       .  A
C1721      C1722   1.388       .  A
C1721      F1728   1.357       .  S
C1722      C1723   1.399       .  A
C1722      F1727   1.358       .  S
C1723      C1724   1.409       .  A
C1724      F1725   1.359       .  S
C1729      C1730   1.391       .  A
C1729      C1734   1.388       .  A
C1729      F1736   1.355       .  S
C1730      C1731   1.395       .  A
C1731      C1732   1.382       .  A
C1731      F1738   1.357       .  S
C1732      C1733   1.409       .  A
C1732      F1737   1.355       .  S
C1733      C1734   1.416       .  A
C1734      F1735   1.357       .  S
C1739      C1740   1.416       .  A
C1739      C1744   1.380       .  A
C1739      F1746   1.357       .  S
C1740      C1741   1.411       .  A
C1741      C1742   1.386       .  A
C1741      F1748   1.355       .  S
C1742      C1743   1.399       .  A
C1742      F1747   1.359       .  S
C1743      C1744   1.394       .  A
C1744      F1745   1.357       .  S
C1749      C1750   1.403       .  A
C1749      C1754   1.387       .  A
C1749      F1756   1.357       .  S
C1750      C1751   1.399       .  A
C1751      C1752   1.393       .  A
C1751      F1758   1.357       .  S
C1752      C1753   1.410       .  A
C1752      F1757   1.358       .  S
C1753      C1754   1.400       .  A
C1754      F1755   1.356       .  S
C1759      C1760   1.416       .  A
C1759      C1764   1.389       .  A
C1759      F1766   1.356       .  S
C1760      C1761   1.406       .  A
C1761      C1762   1.390       .  A
C1761      F1768   1.357       .  S
C1762      C1763   1.405       .  A
C1762      F1767   1.352       .  S
C1763      C1764   1.397       .  A
C1764      F1765   1.358       .  S
C1769      C1770   1.398       .  A
C1769      C1774   1.387       .  A
C1769      F1776   1.359       .  S
C1770      C1771   1.400       .  A
C1771      C1772   1.385       .  A
C1771      F1778   1.359       .  S
C1772      C1773   1.408       .  A
C1772      F1777   1.358       .  S
C1773      C1774   1.410       .  A
C1774      F1775   1.356       .  S
C1779      C1780   1.400       .  A
C1779      C1784   1.379       .  A
C1779      F1786   1.359       .  S
C1780      C1781   1.393       .  A
C1781      C1782   1.382       .  A
C1781      F1788   1.359       .  S
C1782      C1783   1.413       .  A
C1782      F1787   1.356       .  S
C1783      C1784   1.405       .  A
C1784      F1785   1.355       .  S
C1789      C1790   1.412       .  A
C1789      C1794   1.384       .  A
C1789      F1796   1.359       .  S
C1790      C1791   1.401       .  A
C1791      C1792   1.380       .  A
C1791      F1798   1.358       .  S
C1792      C1793   1.407       .  A
C1792      F1797   1.359       .  S
C1793      C1794   1.398       .  A
C1794      F1795   1.356       .  S
C1799      C1800   1.405       .  A
C1799      C1804   1.380       .  A
C1799      F1806   1.358       .  S
C1800      C1801   1.405       .  A
C1801      C1802   1.389       .  A
C1801      F1808   1.356       .  S
C1802      C1803   1.406       .  A
C1802      F1807   1.359       .  S
C1803      C1804   1.396       .  A
C1804      F1805   1.354       .  S
C1809      C1810   1.412       .  A
C1809      C1814   1.387       .  A
C1809      F1816   1.355       .  S
C1810      C1811   1.409       .  A
C1811      C1812   1.391       .  A
C1811      F1818   1.358       .  S
C1812      C1813   1.400       .  A
C1812      F1817   1.353       .  S
C1813      C1814   1.398       .  A
C1814      F1815   1.359       .  S
C1819      C1821   1.557       .  S
C1819      C1823   1.543       .  S
C1819      C1822   1.559       .  S
C1819      C2416   1.509       .  S
C1820      C1824   1.545       .  S
C1820      C1826   1.538       .  S
C1820      C1825   1.552       .  S
C1820      C2406   1.502       .  S
C1821      C1829   1.394       .  A
C1821      C1824   1.384       .  A
C1822      C1833   1.396       .  A
C1822      C1825   1.391       .  A
C1823      C1837   1.389       .  A
C1823      C1826   1.375       .  A
C1824      C1827   1.388       .  A
C1825      C1831   1.390       .  A
C1826      C1834   1.391       .  A
C1827      N1828   1.354       .  A
C1827      H1840   1.082       .  S
N1828      C1829   1.362       .  A
N1828      C2101   1.455       .  S
C1829      H1830   1.081       .  S
C1831      N1832   1.360       .  A
C1831      H1841   1.080       .  S
N1832      C1833   1.367       .  A
N1832      C1862   1.465       .  S
C1833      H1839   1.082       .  S
C1834      N1835   1.368       .  A
C1834      H1836   1.082       .  S
N1835      C1837   1.367       .  A
N1835      C1919   1.469       .  S
C1837      H1838   1.082       .  S
N1842      C1847   1.361       .  A
N1842      H1874   1.041       .  S
N1843      C1850   1.360       .  A
N1843      C1851   1.360       .  A
N1844      C1849   1.359       .  A
N1844      H1875   1.041       .  S
N1845      C1852   1.357       .  A
N1845      C1853   1.356       .  A
C1846      C1854   1.386       .  A
C1846      C1862   1.427       .  A
C1847      C1863   1.428       .  A
C1847      C1855   1.386       .  A
C1848      C1856   1.387       .  A
C1848      C1865   1.428       .  A
C1849      C1864   1.423       .  A
C1849      C1857   1.385       .  A
C1850      C1862   1.429       .  A
C1850      C1858   1.386       .  A
C1851      C1865   1.427       .  A
C1851      C1859   1.385       .  A
C1852      C1860   1.384       .  A
C1852      C1863   1.418       .  A
C1853      C1861   1.385       .  A
C1853      C1864   1.421       .  A
C1854      H1866   1.082       .  S
C1855      H1867   1.082       .  S
C1856      H1868   1.082       .  S
C1857      H1869   1.082       .  S
C1858      C1859   1.379       .  A
C1858      H1870   1.082       .  S
C1859      H1871   1.082       .  S
C1860      C1861   1.376       .  A
C1860      H1872   1.082       .  S
C1861      H1873   1.080       .  S
C1863      N2151   1.460       .  S
C1864      N1892   1.458       .  S
C1865      N2197   1.466       .  S
C1876      C1878   1.546       .  S
C1876      C1880   1.550       .  S
C1876      C1879   1.556       .  S
C1876      C2389   1.495       .  S
C1877      C1881   1.546       .  S
C1877      C1883   1.554       .  S
C1877      C1882   1.537       .  S
C1877      C2399   1.493       .  S
C1878      C1886   1.395       .  A
C1878      C1881   1.371       .  A
C1879      C1890   1.398       .  A
C1879      C1882   1.381       .  A
C1880      C1894   1.388       .  A
C1880      C1883   1.387       .  A
C1881      C1884   1.392       .  A
C1882      C1888   1.385       .  A
C1883      C1891   1.393       .  A
C1884      N1885   1.360       .  A
C1884      H1897   1.081       .  S
N1885      C1886   1.368       .  A
N1885      C2067   1.467       .  S
C1886      H1887   1.082       .  S
C1888      N1889   1.362       .  A
C1888      H1898   1.082       .  S
N1889      C1890   1.365       .  A
N1889      C1953   1.465       .  S
C1890      H1896   1.081       .  S
C1891      N1892   1.362       .  A
C1891      H1893   1.081       .  S
N1892      C1894   1.360       .  A
C1894      H1895   1.082       .  S
N1899      C1903   1.362       .  A
N1899      H1931   1.040       .  S
N1900      C1907   1.362       .  A
N1900      C1908   1.362       .  A
N1901      C1905   1.364       .  A
N1901      H1932   1.040       .  S
N1902      C1909   1.362       .  A
N1902      C1910   1.362       .  A
C1903      C1911   1.387       .  A
C1903      C1919   1.431       .  A
C1904      C1920   1.431       .  A
C1904      C1912   1.386       .  A
C1905      C1913   1.386       .  A
C1905      C1922   1.434       .  A
C1906      C1921   1.434       .  A
C1906      C1914   1.386       .  A
C1907      C1919   1.432       .  A
C1907      C1915   1.386       .  A
C1908      C1922   1.430       .  A
C1908      C1916   1.385       .  A
C1909      C1917   1.386       .  A
C1909      C1920   1.431       .  A
C1910      C1918   1.385       .  A
C1910      C1921   1.430       .  A
C1911      H1923   1.082       .  S
C1912      H1924   1.082       .  S
C1913      H1925   1.082       .  S
C1914      H1926   1.082       .  S
C1915      C1916   1.377       .  A
C1915      H1927   1.081       .  S
C1916      H1928   1.081       .  S
C1917      C1918   1.377       .  A
C1917      H1929   1.082       .  S
C1918      H1930   1.082       .  S
C1920      N2200   1.469       .  S
C1921      N1983   1.473       .  S
C1922      N2177   1.471       .  S
N1933      C1938   1.360       .  A
N1933      H1965   1.040       .  S
N1934      C1941   1.360       .  A
N1934      C1942   1.360       .  A
N1935      C1940   1.358       .  A
N1935      H1966   1.040       .  S
N1936      C1943   1.360       .  A
N1936      C1944   1.359       .  A
C1937      C1945   1.387       .  A
C1937      C1953   1.429       .  A
C1938      C1954   1.425       .  A
C1938      C1946   1.385       .  A
C1939      C1947   1.387       .  A
C1939      C1956   1.424       .  A
C1940      C1955   1.420       .  A
C1940      C1948   1.385       .  A
C1941      C1953   1.427       .  A
C1941      C1949   1.385       .  A
C1942      C1956   1.426       .  A
C1942      C1950   1.385       .  A
C1943      C1951   1.386       .  A
C1943      C1954   1.427       .  A
C1944      C1952   1.384       .  A
C1944      C1955   1.425       .  A
C1945      H1957   1.081       .  S
C1946      H1958   1.082       .  S
C1947      H1959   1.081       .  S
C1948      H1960   1.082       .  S
C1949      C1950   1.378       .  A
C1949      H1961   1.082       .  S
C1950      H1962   1.082       .  S
C1951      C1952   1.377       .  A
C1951      H1963   1.082       .  S
C1952      H1964   1.082       .  S
C1954      N2147   1.463       .  S
C1955      N2033   1.459       .  S
C1956      N2128   1.461       .  S
C1967      C1969   1.568       .  S
C1967      C1971   1.556       .  S
C1967      C1970   1.543       .  S
C1967      C2366   1.510       .  S
C1968      C1972   1.559       .  S
C1968      C1974   1.548       .  S
C1968      C1973   1.555       .  S
C1968      C2379   1.504       .  S
C1969      C1977   1.404       .  A
C1969      C1972   1.389       .  A
C1970      C1981   1.390       .  A
C1970      C1973   1.378       .  A
C1971      C1985   1.396       .  A
C1971      C1974   1.378       .  A
C1972      C1975   1.395       .  A
C1973      C1979   1.399       .  A
C1974      C1982   1.396       .  A
C1975      N1976   1.363       .  A
C1975      H1988   1.082       .  S
N1976      C1977   1.371       .  A
N1976      C2069   1.474       .  S
C1977      H1978   1.082       .  S
C1979      N1980   1.365       .  A
C1979      H1989   1.081       .  S
N1980      C1981   1.363       .  A
N1980      C2010   1.468       .  S
C1981      H1987   1.082       .  S
C1982      N1983   1.368       .  A
C1982      H1984   1.082       .  S
N1983      C1985   1.364       .  A
C1985      H1986   1.081       .  S
N1990      C1995   1.361       .  A
N1990      C1994   1.362       .  A
N1990      H2022   1.041       .  S
N1991      C1999   1.359       .  A
N1992      C1997   1.359       .  A
N1992      C1996   1.359       .  A
N1992      H2023   1.041       .  S
N1993      C2001   1.360       .  A
C1994      C2002   1.386       .  A
C1994      C2010   1.430       .  A
C1995      C2011   1.431       .  A
C1995      C2003   1.387       .  A
C1996      C2004   1.386       .  A
C1996      C2013   1.423       .  A
C1997      C2012   1.425       .  A
C1997      C2005   1.387       .  A
C1998      C2010   1.428       .  A
C1998      C2006   1.387       .  A
C1999      C2013   1.424       .  A
C1999      C2007   1.384       .  A
C2000      C2008   1.385       .  A
C2000      C2011   1.426       .  A
C2001      C2009   1.385       .  A
C2001      C2012   1.427       .  A
C2002      C2003   1.383       .  A
C2002      H2014   1.082       .  S
C2003      H2015   1.082       .  S
C2004      C2005   1.380       .  A
C2004      H2016   1.082       .  S
C2005      H2017   1.082       .  S
C2006      H2018   1.082       .  S
C2007      H2019   1.082       .  S
C2008      H2020   1.081       .  S
C2009      H2021   1.082       .  S
C2011      N2174   1.466       .  S
C2012      N2037   1.464       .  S
C2013      N2131   1.460       .  S
C2024      C2026   1.554       .  S
C2024      C2028   1.563       .  S
C2024      C2027   1.552       .  S
C2024      C2359   1.514       .  S
C2025      C2029   1.547       .  S
C2025      C2031   1.530       .  S
C2025      C2030   1.547       .  S
C2025      C2346   1.501       .  S
C2026      C2034   1.392       .  A
C2026      C2029   1.382       .  A
C2027      C2038   1.390       .  A
C2027      C2030   1.390       .  A
C2028      C2042   1.399       .  A
C2028      C2031   1.378       .  A
C2029      C2032   1.391       .  A
C2030      C2036   1.387       .  A
C2031      C2039   1.385       .  A
C2032      N2033   1.362       .  A
C2032      H2045   1.082       .  S
N2033      C2034   1.359       .  A
C2034      H2035   1.081       .  S
C2036      N2037   1.362       .  A
C2036      H2046   1.081       .  S
N2037      C2038   1.368       .  A
C2038      H2044   1.082       .  S
C2039      N2040   1.355       .  A
C2039      H2041   1.082       .  S
N2040      C2042   1.366       .  A
N2040      C2103   1.461       .  S
C2042      H2043   1.080       .  S
N2047      C2052   1.357       .  A
N2047      C2051   1.360       .  A
N2047      H2079   1.039       .  S
N2048      C2055   1.363   1_556  A
N2048      C2056   1.361       .  A
N2049      C2054   1.366       .  A
N2049      C2053   1.363       .  A
N2049      H2080   1.038       .  S
N2050      C2057   1.360   1_556  A
N2050      C2058   1.363       .  A
C2051      C2059   1.386       .  A
C2051      C2067   1.423       .  A
C2052      C2068   1.421       .  A
C2052      C2060   1.386       .  A
C2053      C2061   1.388       .  A
C2053      C2070   1.435       .  A
C2054      C2069   1.433       .  A
C2054      C2062   1.384       .  A
C2055      C2067   1.430       .  A
C2055      C2063   1.384       .  A
C2056      C2070   1.432       .  A
C2056      C2064   1.387       .  A
C2057      C2065   1.386       .  A
C2057      C2068   1.431       .  A
C2058      C2066   1.384       .  A
C2058      C2069   1.428       .  A
C2059      C2060   1.377       .  A
C2059      H2071   1.082       .  S
C2060      H2072   1.082       .  S
C2061      C2062   1.381       .  A
C2061      H2073   1.082       .  S
C2062      H2074   1.082       .  S
C2063      C2064   1.379   1_554  A
C2063      H2075   1.082       .  S
C2064      H2076   1.082       .  S
C2065      C2066   1.379   1_554  A
C2065      H2077   1.080       .  S
C2066      H2078   1.082       .  S
C2068      N2193   1.459       .  S
C2070      N2124   1.468       .  S
N2081      C2086   1.364       .  A
N2081      C2085   1.361       .  A
N2081      H2113   1.041       .  S
N2082      C2089   1.353       .  A
N2082      C2090   1.356   1_554  A
N2083      C2088   1.355       .  A
N2083      C2087   1.359       .  A
N2083      H2114   1.041       .  S
N2084      C2091   1.363       .  A
N2084      C2092   1.361   1_554  A
C2085      C2093   1.386       .  A
C2085      C2101   1.430       .  A
C2086      C2102   1.431       .  A
C2086      C2094   1.386       .  A
C2087      C2095   1.384       .  A
C2087      C2104   1.419       .  A
C2088      C2103   1.420       .  A
C2088      C2096   1.387       .  A
C2089      C2101   1.415       .  A
C2089      C2097   1.385       .  A
C2090      C2104   1.417       .  A
C2090      C2098   1.385       .  A
C2091      C2099   1.384       .  A
C2091      C2102   1.431       .  A
C2092      C2100   1.387       .  A
C2092      C2103   1.433       .  A
C2093      C2094   1.380       .  A
C2093      H2105   1.081       .  S
C2094      H2106   1.082       .  S
C2095      C2096   1.377       .  A
C2095      H2107   1.082       .  S
C2096      H2108   1.082       .  S
C2097      C2098   1.376   1_554  A
C2097      H2109   1.082       .  S
C2098      H2110   1.082       .  S
C2099      C2100   1.381   1_554  A
C2099      H2111   1.082       .  S
C2100      H2112   1.082       .  S
C2102      N2154   1.473       .  S
C2104      N2170   1.456       .  S
C2115      C2117   1.558       .  S
C2115      C2119   1.549       .  S
C2115      C2118   1.539       .  S
C2115      C2339   1.505       .  S
C2116      C2120   1.542       .  S
C2116      C2122   1.559       .  S
C2116      C2121   1.547       .  S
C2116      C2326   1.505       .  S
C2117      C2125   1.397       .  A
C2117      C2120   1.383       .  A
C2118      C2129   1.388       .  A
C2118      C2121   1.376       .  A
C2119      C2133   1.388       .  A
C2119      C2122   1.389       .  A
C2120      C2123   1.389       .  A
C2121      C2127   1.392       .  A
C2122      C2130   1.394       .  A
C2123      N2124   1.364       .  A
C2123      H2136   1.082       .  S
N2124      C2125   1.366       .  A
C2125      H2126   1.081       .  S
C2127      N2128   1.361       .  A
C2127      H2137   1.081       .  S
N2128      C2129   1.363       .  A
C2129      H2135   1.082       .  S
C2130      N2131   1.364       .  A
C2130      H2132   1.082       .  S
N2131      C2133   1.360       .  A
C2133      H2134   1.082       .  S
C2138      C2140   1.539       .  S
C2138      C2142   1.555       .  S
C2138      C2141   1.552       .  S
C2138      C2306   1.510       .  S
C2139      C2143   1.536       .  S
C2139      C2145   1.560       .  S
C2139      C2144   1.560       .  S
C2139      C2316   1.513       .  S
C2140      C2148   1.390       .  A
C2140      C2143   1.371       .  A
C2141      C2152   1.388       .  A
C2141      C2144   1.395       .  A
C2142      C2156   1.395       .  A
C2142      C2145   1.387       .  A
C2143      C2146   1.388       .  A
C2144      C2150   1.396       .  A
C2145      C2153   1.396       .  A
C2146      N2147   1.362       .  A
C2146      H2159   1.082       .  S
N2147      C2148   1.366       .  A
C2148      H2149   1.082       .  S
C2150      N2151   1.364       .  A
C2150      H2160   1.081       .  S
N2151      C2152   1.357       .  A
C2152      H2158   1.081       .  S
C2153      N2154   1.369       .  A
C2153      H2155   1.082       .  S
N2154      C2156   1.366       .  A
C2156      H2157   1.082       .  S
C2161      C2163   1.547       .  S
C2161      C2165   1.561       .  S
C2161      C2164   1.537       .  S
C2161      C2289   1.499       .  S
C2162      C2166   1.549       .  S
C2162      C2168   1.541       .  S
C2162      C2167   1.562       .  S
C2162      C2296   1.498       .  S
C2163      C2171   1.389       .  A
C2163      C2166   1.379       .  A
C2164      C2175   1.384       .  A
C2164      C2167   1.382       .  A
C2165      C2179   1.401       .  A
C2165      C2168   1.381       .  A
C2166      C2169   1.392       .  A
C2167      C2173   1.401       .  A
C2168      C2176   1.387       .  A
C2169      N2170   1.360       .  A
C2169      H2182   1.082       .  S
N2170      C2171   1.359       .  A
C2171      H2172   1.082       .  S
C2173      N2174   1.370       .  A
C2173      H2183   1.081       .  S
N2174      C2175   1.359       .  A
C2175      H2181   1.082       .  S
C2176      N2177   1.363       .  A
C2176      H2178   1.082       .  S
N2177      C2179   1.371       .  A
C2179      H2180   1.082       .  S
C2184      C2186   1.553       .  S
C2184      C2188   1.547       .  S
C2184      C2187   1.555       .  S
C2184      C2276   1.500       .  S
C2185      C2189   1.546       .  S
C2185      C2191   1.557       .  S
C2185      C2190   1.544       .  S
C2185      C2266   1.495       .  S
C2186      C2194   1.395       .  A
C2186      C2189   1.375       .  A
C2187      C2198   1.397       .  A
C2187      C2190   1.384       .  A
C2188      C2202   1.388       .  A
C2188      C2191   1.382       .  A
C2189      C2192   1.389       .  A
C2190      C2196   1.388       .  A
C2191      C2199   1.401       .  A
C2192      N2193   1.356       .  A
C2192      H2205   1.082       .  S
N2193      C2194   1.365       .  A
C2194      H2195   1.082       .  S
C2196      N2197   1.363       .  A
C2196      H2206   1.082       .  S
N2197      C2198   1.366       .  A
C2198      H2204   1.081       .  S
C2199      N2200   1.367       .  A
C2199      H2201   1.080       .  S
N2200      C2202   1.362       .  A
C2202      H2203   1.082       .  S
O2207      C2215   1.251       .  A
O2208      C2216   1.254       .  A
O2208     Co2228   1.944       .  S
O2209      C2217   1.265       .  A
O2209     Co2229   2.009       .  S
O2210      C2218   1.234       .  A
O2210     Co2230   1.933       .  S
O2211      C2217   1.246       .  A
O2212      C2218   1.249       .  A
O2212     Co2227   1.986       .  S
O2213      C2216   1.265       .  A
O2213     Co2230   1.990   1_556  S
O2214      C2215   1.245       .  A
O2214     Co2229   1.943   1_554  S
C2215      C2419   1.456       .  S
C2216      C2349   1.440       .  S
C2217      C2299   1.448       .  S
C2218      C2309   1.444       .  S
O2219      C2232   1.281       .  A
O2220      C2233   1.267       .  A
O2221      C2234   1.271       .  A
O2222      C2235   1.249       .  A
O2223      C2235   1.262       .  A
O2224      C2234   1.281       .  A
O2225      C2232   1.270       .  A
O2226      C2233   1.249       .  A
Co2227     O2231   2.205   1_554  S
Co2228     O2231   2.050       .  S
Co2230     O2231   1.922   1_554  S
C2232      C2396   1.452       .  S
C2233      C2369   1.465       .  S
C2234      C2269   1.432       .  S
C2235      C2336   1.436       .  S
O2236      C2244   1.256       .  A
O2236     Co2256   1.991       .  S
O2237      C2245   1.275       .  A
O2237     Co2257   2.011       .  S
O2238      C2246   1.243       .  A
O2238     Co2258   1.917       .  S
O2239      C2247   1.263       .  A
O2239     Co2259   1.872       .  S
O2240      C2246   1.273       .  A
O2240     Co2257   2.028       .  S
O2241      C2247   1.289       .  A
O2241     Co2256   2.090       .  S
O2242      C2245   1.261       .  A
O2242     Co2259   1.940       .  S
O2243      C2244   1.242       .  A
O2243     Co2258   1.946       .  S
C2244      C2409   1.447       .  S
C2245      C2376   1.444       .  S
C2246      C2286   1.452       .  S
C2247      C2279   1.434       .  S
O2248      C2261   1.265       .  A
O2248     Co2256   1.871       .  S
O2249      C2262   1.249       .  A
O2249     Co2257   1.928       .  S
O2250      C2263   1.281       .  A
O2250     Co2258   2.024       .  S
O2251      C2264   1.259       .  A
O2251     Co2259   1.996       .  S
O2252      C2264   1.247       .  A
O2252     Co2257   1.946       .  S
O2253      C2263   1.267       .  A
O2253     Co2256   1.948       .  S
O2254      C2261   1.286       .  A
O2254     Co2259   2.061       .  S
O2255      C2262   1.273       .  A
O2255     Co2258   2.034       .  S
Co2256     O2260   1.967       .  S
Co2257     O2260   1.980       .  S
Co2258     O2260   1.967       .  S
Co2259     O2260   1.965       .  S
C2261      C2386   1.435       .  S
C2262      C2356   1.443       .  S
C2263      C2319   1.465       .  S
C2264      C2329   1.455       .  S
C2265      C2266   1.411       .  A
C2265      C2270   1.380       .  A
C2265      F2272   1.358       .  S
C2266      C2267   1.398       .  A
C2267      C2268   1.383       .  A
C2267      F2274   1.354       .  S
C2268      C2269   1.402       .  A
C2268      F2273   1.355       .  S
C2269      C2270   1.392       .  A
C2270      F2271   1.354       .  S
C2275      C2276   1.411       .  A
C2275      C2280   1.390       .  A
C2275      F2282   1.354       .  S
C2276      C2277   1.413       .  A
C2277      C2278   1.378       .  A
C2277      F2284   1.358       .  S
C2278      C2279   1.390       .  A
C2278      F2283   1.357       .  S
C2279      C2280   1.396       .  A
C2280      F2281   1.358       .  S
C2285      C2286   1.393       .  A
C2285      C2290   1.387       .  A
C2285      F2292   1.358       .  S
C2286      C2287   1.413       .  A
C2287      C2288   1.380       .  A
C2287      F2294   1.359       .  S
C2288      C2289   1.399       .  A
C2288      F2293   1.357       .  S
C2289      C2290   1.416       .  A
C2290      F2291   1.357       .  S
C2295      C2296   1.398       .  A
C2295      C2300   1.381       .  A
C2295      F2302   1.356       .  S
C2296      C2297   1.415       .  A
C2297      C2298   1.387       .  A
C2297      F2304   1.358       .  S
C2298      C2299   1.394       .  A
C2298      F2303   1.358       .  S
C2299      C2300   1.410       .  A
C2300      F2301   1.359       .  S
C2305      C2306   1.413       .  A
C2305      C2310   1.386       .  A
C2305      F2312   1.354       .  S
C2306      C2307   1.413       .  A
C2307      C2308   1.389       .  A
C2307      F2314   1.358       .  S
C2308      C2309   1.397       .  A
C2308      F2313   1.358       .  S
C2309      C2310   1.390       .  A
C2310      F2311   1.352       .  S
C2315      C2316   1.413       .  A
C2315      C2320   1.389       .  A
C2315      F2322   1.358       .  S
C2316      C2317   1.412       .  A
C2317      C2318   1.393       .  A
C2317      F2324   1.354       .  S
C2318      C2319   1.403       .  A
C2318      F2323   1.358       .  S
C2319      C2320   1.399       .  A
C2320      F2321   1.356       .  S
C2325      C2326   1.402       .  A
C2325      C2330   1.385       .  A
C2325      F2332   1.357       .  S
C2326      C2327   1.412       .  A
C2327      C2328   1.388       .  A
C2327      F2334   1.357       .  S
C2328      C2329   1.399       .  A
C2328      F2333   1.358       .  S
C2329      C2330   1.409       .  A
C2330      F2331   1.359       .  S
C2335      C2336   1.391       .  A
C2335      C2340   1.388       .  A
C2335      F2342   1.355       .  S
C2336      C2337   1.395       .  A
C2337      C2338   1.382       .  A
C2337      F2344   1.357       .  S
C2338      C2339   1.409       .  A
C2338      F2343   1.355       .  S
C2339      C2340   1.416       .  A
C2340      F2341   1.357       .  S
C2345      C2346   1.416       .  A
C2345      C2350   1.380       .  A
C2345      F2352   1.357       .  S
C2346      C2347   1.411       .  A
C2347      C2348   1.386       .  A
C2347      F2354   1.355       .  S
C2348      C2349   1.399       .  A
C2348      F2353   1.359       .  S
C2349      C2350   1.394       .  A
C2350      F2351   1.357       .  S
C2355      C2356   1.403       .  A
C2355      C2360   1.387       .  A
C2355      F2362   1.357       .  S
C2356      C2357   1.399       .  A
C2357      C2358   1.393       .  A
C2357      F2364   1.357       .  S
C2358      C2359   1.410       .  A
C2358      F2363   1.358       .  S
C2359      C2360   1.400       .  A
C2360      F2361   1.356       .  S
C2365      C2366   1.416       .  A
C2365      C2370   1.389       .  A
C2365      F2372   1.356       .  S
C2366      C2367   1.406       .  A
C2367      C2368   1.390       .  A
C2367      F2374   1.357       .  S
C2368      C2369   1.405       .  A
C2368      F2373   1.352       .  S
C2369      C2370   1.397       .  A
C2370      F2371   1.358       .  S
C2375      C2376   1.398       .  A
C2375      C2380   1.387       .  A
C2375      F2382   1.359       .  S
C2376      C2377   1.400       .  A
C2377      C2378   1.385       .  A
C2377      F2384   1.359       .  S
C2378      C2379   1.408       .  A
C2378      F2383   1.358       .  S
C2379      C2380   1.410       .  A
C2380      F2381   1.356       .  S
C2385      C2386   1.400       .  A
C2385      C2390   1.379       .  A
C2385      F2392   1.359       .  S
C2386      C2387   1.393       .  A
C2387      C2388   1.382       .  A
C2387      F2394   1.359       .  S
C2388      C2389   1.413       .  A
C2388      F2393   1.356       .  S
C2389      C2390   1.405       .  A
C2390      F2391   1.355       .  S
C2395      C2396   1.412       .  A
C2395      C2400   1.384       .  A
C2395      F2402   1.359       .  S
C2396      C2397   1.401       .  A
C2397      C2398   1.380       .  A
C2397      F2404   1.358       .  S
C2398      C2399   1.407       .  A
C2398      F2403   1.359       .  S
C2399      C2400   1.398       .  A
C2400      F2401   1.356       .  S
C2405      C2406   1.405       .  A
C2405      C2410   1.380       .  A
C2405      F2412   1.358       .  S
C2406      C2407   1.405       .  A
C2407      C2408   1.389       .  A
C2407      F2414   1.356       .  S
C2408      C2409   1.406       .  A
C2408      F2413   1.359       .  S
C2409      C2410   1.396       .  A
C2410      F2411   1.354       .  S
C2415      C2416   1.412       .  A
C2415      C2420   1.387       .  A
C2415      F2422   1.355       .  S
C2416      C2417   1.409       .  A
C2417      C2418   1.391       .  A
C2417      F2424   1.358       .  S
C2418      C2419   1.400       .  A
C2418      F2423   1.353       .  S
C2419      C2420   1.398       .  A
C2420      F2421   1.359       .  S
