geometry optimzed in LAMMPS
_audit_creation_date              2020-12-01 
_audit_creation_method            'lammps2cif' 
_symmetry_space_group_name_H-M    'P1' 
_symmetry_Int_Tables_number       1 
_symmetry_cell_setting            triclinic 
loop_ 
_symmetry_equiv_pos_as_xyz 
  x,y,z 
_cell_length_a                    43.33728881 
_cell_length_b                    43.24800588322099 
_cell_length_c                    59.75156357071488 
_cell_angle_alpha                 90.15981441593465 
_cell_angle_beta                  89.74855155039184 
_cell_angle_gamma                 119.91750525824067 
loop_ 
_atom_site_label 
_atom_site_type_symbol 
_atom_site_fract_x 
_atom_site_fract_y 
_atom_site_fract_z 
_atom_site_charge 
O1          O  0.32383132  0.23630198  0.08057849    -0.71400
O2          O  0.41161250  0.23623772  0.07394346    -0.71600
O3          O  0.36103120  0.21391802  0.10569556    -0.71500
O4          O  0.37408838  0.25709291  0.04884784    -0.71500
O5          O  0.40430402  0.30988755  0.06364992    -0.71500
O6          O  0.38738768  0.26604586  0.12139480    -0.71500
O7          O  0.43878126  0.28799404  0.09024610    -0.71400
O8          O  0.35284516  0.28948782  0.09476924    -0.71600
V9          V  0.36806322  0.23685016  0.07760549     1.35200
V10         V  0.39513450  0.28725763  0.09231765     1.35200
C11         C  0.32379510  0.26380608  0.08801411     0.77800
C12         C  0.44029533  0.26264449  0.08088407     0.77900
C13         C  0.37255531  0.23234769  0.12327919     0.77700
C14         C  0.39199555  0.29047409  0.04641520     0.77700
O15         O  0.41690513  0.24112498  0.91883837    -0.71400
O16         O  0.33010050  0.24225883  0.92593465    -0.71600
O17         O  0.35745546  0.22012469  0.89385667    -0.71500
O18         O  0.38765376  0.26199432  0.95094367    -0.71500
O19         O  0.41110198  0.31517951  0.93662027    -0.71500
O20         O  0.38315435  0.27254665  0.87847277    -0.71500
O21         O  0.35471195  0.29452215  0.91032440    -0.71400
O22         O  0.44149642  0.29439769  0.90481345    -0.71600
V23         V  0.37372056  0.24239866  0.92204266     1.35200
V24         V  0.39734743  0.29311397  0.90774153     1.35200
C25         C  0.44449593  0.26827674  0.91131520     0.77800
C26         C  0.32789553  0.26892994  0.91945549     0.77900
C27         C  0.36359172  0.23895340  0.87653213     0.77700
C28         C  0.40255771  0.29528329  0.95371200     0.77700
O29         O  0.19436692  0.30055199  0.08329993    -0.71400
O30         O  0.10630858  0.29989872  0.07706848    -0.71600
O31         O  0.15665046  0.32256037  0.10871842    -0.71500
O32         O  0.14398327  0.27946170  0.05178148    -0.71500
O33         O  0.11279632  0.22675663  0.06650959    -0.71500
O34         O  0.13220981  0.27061361  0.12469625    -0.71500
O35         O  0.07983224  0.24911602  0.09441497    -0.71400
O36         O  0.16545424  0.24679484  0.09662393    -0.71600
V37         V  0.14997364  0.29968686  0.08059322     1.35200
V38         V  0.12325796  0.24937246  0.09536822     1.35200
C39         C  0.19447063  0.27276903  0.08999512     0.77800
C40         C  0.07785715  0.27383038  0.08459235     0.77900
C41         C  0.14599728  0.30424261  0.12641215     0.77700
C42         C  0.12515974  0.24616562  0.04924429     0.77700
O43         O  0.10826356  0.30052249  0.92137680    -0.71400
O44         O  0.19484645  0.29854114  0.92699773    -0.71600
O45         O  0.16711411  0.32095321  0.89567988    -0.71500
O46         O  0.13792152  0.27964166  0.95298651    -0.71500
O47         O  0.11431219  0.22634155  0.93878174    -0.71500
O48         O  0.14022466  0.26852716  0.88022179    -0.71500
O49         O  0.16961450  0.24645580  0.91112366    -0.71400
O50         O  0.08303878  0.24684456  0.90776578    -0.71600
V51         V  0.15136601  0.29888701  0.92392722     1.35200
V52         V  0.12710217  0.24807484  0.90967705     1.35200
C53         C  0.08044300  0.27319509  0.91432557     0.77800
C54         C  0.19674317  0.27185728  0.91999514     0.77900
C55         C  0.16000252  0.30211274  0.87826794     0.77700
C56         C  0.12283640  0.24638959  0.95587095     0.77700
O57         O  0.29444476  0.11920066  0.74933918    -0.71400
O58         O  0.29247382  0.20581888  0.74142483    -0.71600
O59         O  0.31617793  0.17975441  0.77350742    -0.71500
O60         O  0.27226125  0.14686516  0.71721710    -0.71500
O61         O  0.21977916  0.12436674  0.73243438    -0.71500
O62         O  0.26459738  0.15418895  0.78984166    -0.71500
O63         O  0.24122181  0.18148010  0.75827856    -0.71400
O64         O  0.24165147  0.09508067  0.76403210    -0.71600
V65         V  0.29288062  0.16232785  0.74573956     1.35200
V66         V  0.24287798  0.13911513  0.76094015     1.35200
C67         C  0.26760487  0.09187533  0.75741961     0.77800
C68         C  0.26592069  0.20795484  0.74832756     0.77900
C69         C  0.29823074  0.17361671  0.79127077     0.77700
C70         C  0.23893032  0.13157857  0.71501105     0.77700
O71         O  0.29566212  0.20565929  0.58722468    -0.71400
O72         O  0.29361769  0.11681918  0.59522166    -0.71600
O73         O  0.31715921  0.16661864  0.56300085    -0.71500
O74         O  0.27363526  0.15554824  0.61967006    -0.71500
O75         O  0.22108863  0.12517996  0.60482350    -0.71500
O76         O  0.26539845  0.14123210  0.54704251    -0.71500
O77         O  0.24254035  0.09004756  0.57840651    -0.71400
O78         O  0.24244766  0.17680070  0.57333895    -0.71600
V79         V  0.29405717  0.16082295  0.59094261     1.35200
V80         V  0.24393268  0.13405174  0.57612009     1.35200
C81         C  0.26873358  0.20610649  0.57930462     0.77800
C82         C  0.26714084  0.08813660  0.58831285     0.77900
C83         C  0.29898768  0.15527972  0.54536409     0.77700
C84         C  0.24036510  0.13684264  0.62212780     0.77700
O85         O  0.22609773  0.42373240  0.74990962    -0.71400
O86         O  0.22424937  0.33472210  0.74430171    -0.71600
O87         O  0.20395619  0.36501220  0.77586590    -0.71500
O88         O  0.24469693  0.39134232  0.71814119    -0.71500
O89         O  0.29802278  0.41504146  0.73197628    -0.71500
O90         O  0.25641665  0.38901496  0.79072023    -0.71500
O91         O  0.27702642  0.35941454  0.75893746    -0.71400
O92         O  0.27927708  0.44724052  0.76383513    -0.71600
V93         V  0.22575870  0.37940597  0.74739218     1.35200
V94         V  0.27660107  0.40243814  0.76119908     1.35200
C95         C  0.25363225  0.45094638  0.75742708     0.77800
C96         C  0.25110082  0.33249227  0.75025422     0.77900
C97         C  0.22278088  0.37060439  0.79306824     0.77700
C98         C  0.27779852  0.40549001  0.71502541     0.77700
O99         O  0.22901217  0.33415336  0.58394199    -0.71400
O100        O  0.22999390  0.42189520  0.59404986    -0.71600
O101        O  0.20957668  0.37533001  0.56029814    -0.71500
O102        O  0.24809888  0.38100045  0.61777939    -0.71500
O103        O  0.30186711  0.41319131  0.60480874    -0.71500
O104        O  0.26262114  0.40198609  0.54582670    -0.71500
O105        O  0.28249710  0.45034977  0.57878800    -0.71400
O106        O  0.28346959  0.36399834  0.57191281    -0.71600
V107        V  0.23018631  0.37849813  0.58868853     1.35200
V108        V  0.28155328  0.40659920  0.57547644     1.35200
C109        C  0.25683391  0.33431654  0.57706646     0.77800
C110        C  0.25673330  0.45111467  0.58808663     0.77900
C111        C  0.22924044  0.38864521  0.54332562     0.77700
C112        C  0.28110950  0.39929587  0.62137957     0.77700
O113        O  0.20094483  0.42768945  0.25474278    -0.71400
O114        O  0.11377205  0.33948854  0.26087522    -0.71600
O115        O  0.16453164  0.36787792  0.22930135    -0.71500
O116        O  0.15042535  0.39772826  0.28618369    -0.71500
O117        O  0.12113843  0.42110822  0.27123347    -0.71500
O118        O  0.13678195  0.39201233  0.21351863    -0.71500
O119        O  0.08606246  0.36391586  0.24518108    -0.71400
O120        O  0.17195288  0.45114111  0.23967987    -0.71600
V121        V  0.15703158  0.38377273  0.25739448     1.35200
V122        V  0.12972111  0.40667840  0.24257373     1.35200
C123        C  0.20083724  0.45498798  0.24710607     0.77800
C124        C  0.08490496  0.33718274  0.25436612     0.77900
C125        C  0.15200428  0.37343943  0.21171746     0.77700
C126        C  0.13276236  0.41348270  0.28855955     0.77700
O127        O  0.11171383  0.34396359  0.41754907    -0.71400
O128        O  0.19852222  0.43186618  0.40984377    -0.71600
O129        O  0.17089903  0.38301950  0.44220046    -0.71500
O130        O  0.14055164  0.39286563  0.38483838    -0.71500
O131        O  0.11769167  0.42356382  0.39867162    -0.71500
O132        O  0.14493393  0.40976013  0.45734519    -0.71500
O133        O  0.17398561  0.45990154  0.42525010    -0.71400
O134        O  0.08697421  0.37329703  0.43067031    -0.71600
V135        V  0.15480543  0.38837721  0.41391232     1.35200
V136        V  0.13122042  0.41591758  0.42779831     1.35200
C137        C  0.08422608  0.34394589  0.42487990     0.77800
C138        C  0.20086464  0.46086924  0.41633609     0.77900
C139        C  0.16410066  0.39529593  0.45953045     0.77700
C140        C  0.12529855  0.41084210  0.38175977     0.77700
O141        O  0.32889561  0.12230336  0.25344755    -0.71400
O142        O  0.41659644  0.21093599  0.25799310    -0.71600
O143        O  0.36549562  0.18045674  0.22698472    -0.71500
O144        O  0.37995571  0.15465928  0.28452757    -0.71500
O145        O  0.41041452  0.13154630  0.27070981    -0.71500
O146        O  0.39152719  0.15373723  0.21185888    -0.71500
O147        O  0.44352931  0.18569404  0.24220153    -0.71400
O148        O  0.35836441  0.09781304  0.24029764    -0.71600
V149        V  0.37306086  0.16643200  0.25540066     1.35200
V150        V  0.40020696  0.14251884  0.24146088     1.35200
C151        C  0.32921155  0.09455685  0.24676115     0.77800
C152        C  0.44525980  0.21297780  0.25105787     0.77900
C153        C  0.37684971  0.17269122  0.20963331     0.77700
C154        C  0.39919406  0.14082884  0.28763404     0.77700
O155        O  0.41644589  0.21475443  0.41704670    -0.71400
O156        O  0.33164776  0.12487838  0.40895328    -0.71600
O157        O  0.35729656  0.17324780  0.44184816    -0.71500
O158        O  0.38960000  0.16653887  0.38419899    -0.71500
O159        O  0.41481946  0.13792486  0.39753093    -0.71500
O160        O  0.38429673  0.14725998  0.45626523    -0.71500
O161        O  0.35809491  0.09841506  0.42351427    -0.71400
O162        O  0.44255919  0.18719936  0.43039275    -0.71600
V163        V  0.37432250  0.16940870  0.41333372     1.35200
V164        V  0.39956119  0.14337785  0.42673078     1.35200
C165        C  0.44447826  0.21613907  0.42446524     0.77800
C166        C  0.33058096  0.09622149  0.41488296     0.77900
C167        C  0.36406990  0.16044370  0.45884154     0.77700
C168        C  0.40700479  0.15071591  0.38086045     0.77700
C169        C  0.43119952  0.17404131  0.32076481    -0.11900
C170        C  0.41106563  0.14057065  0.31064971     0.05100
C171        C  0.39627620  0.10970188  0.32406927    -0.07200
C172        C  0.39942192  0.11308055  0.34753009    -0.08000
C173        C  0.41629934  0.14697320  0.35763227    -0.02500
C174        C  0.43357676  0.17751732  0.34401108     0.04300
N175        N  0.44996810  0.21246768  0.35356510     0.66800
H176        H  0.44240476  0.19796389  0.31060607     0.15700
H177        H  0.38527698  0.08947605  0.35781985     0.15400
N178        N  0.37440711  0.07530269  0.31443571     0.74500
O179        O  0.48136277  0.22649190  0.36089896    -0.38900
O180        O  0.43551903  0.23136815  0.35120131    -0.38900
O181        O  0.38608075  0.05385386  0.31293487    -0.39600
O182        O  0.34164327  0.06402142  0.31165005    -0.39600
C183        C  0.26660585  0.49571774  0.41804358    -0.11900
C184        C  0.23441381  0.49505718  0.41439500     0.05100
C185        C  0.23317543  0.02670770  0.40929525    -0.07200
C186        C  0.26495470  0.05948560  0.40989013    -0.08000
C187        C  0.29785350  0.06099809  0.41237528    -0.02500
C188        C  0.29860089  0.02865450  0.41339910     0.04300
N189        N  0.33133939  0.02843491  0.41535565     0.66800
H190        H  0.26670150  0.47111930  0.42113516     0.15700
H191        H  0.26373525  0.08382673  0.40886750     0.15400
N192        N  0.20251685  0.52791320  0.40641483     0.74500
O193        O  0.34063444  0.02265116  0.43415435    -0.38900
O194        O  0.34738064  0.02752521  0.39791203    -0.38900
O195        O  0.18954191  0.53888717  0.42130319    -0.39600
O196        O  0.19099331  0.52378284  0.38664639    -0.39600
C197        C  0.01858107  0.31294027  0.42077581    -0.11900
C198        C  0.04914675  0.31097657  0.42592588     0.05100
C199        C  0.04544430  0.27776587  0.43165187    -0.07200
C200        C  0.50844732  0.24975810  0.43579821    -0.08000
C201        C  0.47931529  0.25011701  0.42559970    -0.02500
C202        C  0.48515881  0.28211987  0.41539401     0.04300
N203        N  0.45724153  0.28426158  0.40414172     0.66800
H204        H  0.02105594  0.33823227  0.41606813     0.15700
H205        H  0.50490810  0.22578728  0.44379520     0.15400
N206        N  0.07569958  0.27463436  0.43750163     0.74500
O207        O  0.43504375  0.28866391  0.41541852    -0.38900
O208        O  0.45938077  0.28953240  0.38329107    -0.38900
O209        O  0.08507045  0.27751121  0.45771407    -0.39600
O210        O  0.08917333  0.26321672  0.42323873    -0.39600
C211        C  0.26322102  0.05572994  0.24406289    -0.11900
C212        C  0.29678716  0.05882056  0.24649184     0.05100
C213        C  0.29904601  0.02736526  0.24829308    -0.07200
C214        C  0.26822868  0.99388664  0.24743987    -0.08000
C215        C  0.23332516  0.49077748  0.24740656    -0.02500
C216        C  0.23231644  0.02211993  0.24303548     0.04300
N217        N  0.19830091  0.52186320  0.24519639     0.66800
H218        H  0.26093279  0.07945951  0.24277955     0.15700
H219        H  0.26858232  0.46935345  0.25088608     0.15400
N220        N  0.33236001  0.02880004  0.25169892     0.74500
O221        O  0.18116364  0.01856129  0.25837300    -0.38900
O222        O  0.18892682  0.53003168  0.22722455    -0.38900
O223        O  0.34069273  0.02421435  0.27110414    -0.39600
O224        O  0.34926791  0.02671275  0.23506551    -0.39600
C225        C  0.01992721  0.30830445  0.26066521    -0.11900
C226        C  0.05011594  0.30468190  0.25742141     0.05100
C227        C  0.04598025  0.27041423  0.25600265    -0.07200
C228        C  0.51098514  0.24242959  0.24904510    -0.08000
C229        C  0.48060278  0.24559046  0.25311088    -0.02500
C230        C  0.48516054  0.27960809  0.25785389     0.04300
N231        N  0.45560456  0.28444707  0.26306586     0.66800
H232        H  0.02293027  0.33459000  0.26236201     0.15700
H233        H  0.50837124  0.21670275  0.24542908     0.15400
N234        N  0.07573769  0.26546896  0.25197546     0.74500
O235        O  0.44154122  0.27597211  0.28224547    -0.38900
O236        O  0.44905264  0.30414067  0.25077056    -0.38900
O237        O  0.08890429  0.25687690  0.26794052    -0.39600
O238        O  0.08395572  0.26259979  0.23210799    -0.39600
C239        C  0.09467383  0.39272462  0.32216856    -0.11900
C240        C  0.12468614  0.42018610  0.31143044     0.05100
C241        C  0.15058607  0.44856230  0.32428254    -0.07200
C242        C  0.14759041  0.44752410  0.34770975    -0.08000
C243        C  0.11944611  0.41817934  0.35855258    -0.02500
C244        C  0.09198838  0.39143930  0.34560589     0.04300
N245        N  0.06309383  0.36106282  0.35606959     0.66800
H246        H  0.07488756  0.37054699  0.31246732     0.15700
H247        H  0.16927244  0.46772921  0.35746689     0.15400
N248        N  0.18180240  0.47671705  0.31398650     0.74500
O249        O  0.03502392  0.36159186  0.36100099    -0.38900
O250        O  0.06336587  0.33205957  0.35705669    -0.38900
O251        O  0.18668668  0.50802184  0.31409078    -0.39600
O252        O  0.20708368  0.47164250  0.30849119    -0.39600
C253        C  0.18103277  0.39130009  0.52204585    -0.11900
C254        C  0.21294580  0.39003000  0.52164936     0.05100
C255        C  0.22858259  0.39107083  0.50074570    -0.07200
C256        C  0.21193966  0.39238168  0.48092768    -0.08000
C257        C  0.18005407  0.39367796  0.48129583    -0.02500
C258        C  0.16489323  0.39361413  0.50222403     0.04300
N259        N  0.13280691  0.39520620  0.50370231     0.66800
H260        H  0.16871606  0.39101092  0.53787555     0.15700
H261        H  0.22441966  0.39287568  0.46511818     0.15400
N262        N  0.26097877  0.39008255  0.49925641     0.74500
O263        O  0.10314370  0.36669864  0.50399468    -0.38900
O264        O  0.13430874  0.42439029  0.50839927    -0.38900
O265        O  0.25987095  0.36068780  0.49610366    -0.39600
O266        O  0.29018792  0.41881821  0.49720231    -0.39600
C267        C  0.30450931  0.43843961  0.67934878    -0.11900
C268        C  0.29079829  0.40695998  0.69194185     0.05100
C269        C  0.28188985  0.37469369  0.68091722    -0.07200
C270        C  0.28299297  0.37351672  0.65756671    -0.08000
C271        C  0.29350288  0.40424173  0.64478251    -0.02500
C272        C  0.30636458  0.43733248  0.65582061     0.04300
N273        N  0.31762711  0.46931444  0.64332170     0.66800
H274        H  0.31124486  0.46334392  0.68756858     0.15700
H275        H  0.27301313  0.34795602  0.64933383     0.15400
N276        N  0.26914109  0.34223641  0.69315957     0.74500
O277        O  0.29698288  0.48182035  0.64132560    -0.38900
O278        O  0.35002689  0.48832938  0.63807286    -0.38900
O279        O  0.23605908  0.32102920  0.69464870    -0.39600
O280        O  0.29038472  0.33109552  0.69745466    -0.39600
C281        C  0.22985463  0.02223510  0.58936560    -0.11900
C282        C  0.26385505  0.05270551  0.59142646     0.05100
C283        C  0.29350893  0.04819528  0.59485632    -0.07200
C284        C  0.28922319  0.01398755  0.59379799    -0.08000
C285        C  0.25873408  0.48576359  0.59168907    -0.02500
C286        C  0.22544287  0.98794601  0.58920339     0.04300
N287        N  0.19385290  0.45965290  0.58687225     0.66800
H288        H  0.20653972  0.02499491  0.58737400     0.15700
H289        H  0.31567269  0.51332360  0.59676903     0.15400
N290        N  0.32820741  0.07786967  0.59887422     0.74500
O291        O  0.17275044  0.44608054  0.60319456    -0.38900
O292        O  0.18239388  0.45066363  0.56718055    -0.38900
O293        O  0.33625530  0.09064555  0.61837521    -0.39600
O294        O  0.35268019  0.08549103  0.58474916    -0.39600
C295        C  0.29321963  0.30409280  0.57683936    -0.11900
C296        C  0.25937693  0.30120758  0.57611076     0.05100
C297        C  0.22903630  0.26685959  0.57546951    -0.07200
C298        C  0.23288355  0.23654137  0.57621845    -0.08000
C299        C  0.26665901  0.23939478  0.57753120    -0.02500
C300        C  0.29707658  0.27371823  0.57745269     0.04300
N301        N  0.33208129  0.27827170  0.57728425     0.66800
H302        H  0.31696288  0.33012897  0.57713391     0.15700
H303        H  0.20909185  0.21053783  0.57599686     0.15400
N304        N  0.19411333  0.26217721  0.57350881     0.74500
O305        O  0.34524659  0.27504683  0.55914613    -0.38900
O306        O  0.35165990  0.29074744  0.59429411    -0.38900
O307        O  0.18097166  0.25980726  0.55434932    -0.39600
O308        O  0.17437389  0.25426365  0.59058217    -0.39600
C309        C  0.30101598  0.16087221  0.50371546    -0.11900
C310        C  0.31672460  0.15792107  0.52345045     0.05100
C311        C  0.34840391  0.15604173  0.52175723    -0.07200
C312        C  0.36330814  0.15685967  0.50067802    -0.08000
C313        C  0.34775860  0.16011683  0.48095214    -0.02500
C314        C  0.31613847  0.16208027  0.48267704     0.04300
N315        N  0.29794240  0.16357345  0.46318320     0.66800
H316        H  0.27662423  0.16195300  0.50457459     0.15700
H317        H  0.38728264  0.15501881  0.49979065     0.15400
N318        N  0.36488335  0.15133132  0.54111710     0.74500
O319        O  0.27679877  0.13510713  0.45311507    -0.38900
O320        O  0.29848075  0.19219508  0.45827121    -0.38900
O321        O  0.36573629  0.12276181  0.54330665    -0.39600
O322        O  0.38553097  0.17815016  0.55272198    -0.39600
C323        C  0.23175472  0.02592048  0.76254433    -0.11900
C324        C  0.26521807  0.05636637  0.75849987     0.05100
C325        C  0.29493198  0.05178659  0.75507538    -0.07200
C326        C  0.29063570  0.01744485  0.75533697    -0.08000
C327        C  0.25704002  0.48681822  0.75807106    -0.02500
C328        C  0.22752545  0.99160370  0.76282722     0.05500
N329        N  0.19278082  0.46186374  0.76515635     0.66800
H330        H  0.20856468  0.02862560  0.76551438     0.15700
H331        H  0.31408150  0.51404252  0.75311321     0.15400
N332        N  0.32971150  0.08161205  0.75148177     0.74500
O333        O  0.18414847  0.44969313  0.78476236    -0.38900
O334        O  0.16925054  0.45154899  0.75017918    -0.38900
O335        O  0.35086746  0.09475315  0.76773876    -0.39600
O336        O  0.34120199  0.09078977  0.73177651    -0.39600
C337        C  0.22845860  0.23607318  0.74600361    -0.11900
C338        C  0.26272025  0.24003323  0.74525348     0.05100
C339        C  0.29257493  0.27447225  0.74366066    -0.07200
C340        C  0.28786947  0.30408600  0.74507150    -0.08000
C341        C  0.25370779  0.30012995  0.74691057    -0.02500
C342        C  0.22372091  0.26573004  0.74646394     0.04300
N343        N  0.18845712  0.26029911  0.74795977     0.66800
H344        H  0.20513223  0.20975569  0.74670105     0.15700
H345        H  0.31119552  0.33042648  0.74465425     0.15400
N346        N  0.32784089  0.28002029  0.74142987     0.74500
O347        O  0.17225920  0.25960060  0.73030026    -0.38900
O348        O  0.17121618  0.24894181  0.76599922    -0.38900
O349        O  0.33827004  0.27545979  0.72259610    -0.39600
O350        O  0.35049547  0.29684430  0.75645923    -0.39600
C351        C  0.22636682  0.09809298  0.67965583    -0.11900
C352        C  0.22424718  0.12437522  0.69218640     0.05100
C353        C  0.21926981  0.15022461  0.68096663    -0.07200
C354        C  0.22051556  0.15179737  0.65747387    -0.08000
C355        C  0.22587497  0.12737269  0.64501467    -0.02500
C356        C  0.22691581  0.09922877  0.65621427     0.04300
N357        N  0.23296395  0.07418338  0.64411761     0.66800
H358        H  0.23092442  0.07857973  0.68806062     0.15700
H359        H  0.22022171  0.17380777  0.64908674     0.15400
N360        N  0.21724678  0.17757184  0.69323372     0.74500
O361        O  0.26408297  0.07887840  0.64283387    -0.38900
O362        O  0.20683702  0.04423611  0.63898091    -0.38900
O363        O  0.24359179  0.20883596  0.69346703    -0.39600
O364        O  0.18753147  0.17194655  0.70054954    -0.39600
C365        C  0.15513834  0.30952551  0.83711418    -0.11900
C366        C  0.17586974  0.31954130  0.85651340     0.05100
C367        C  0.21181767  0.34708257  0.85509184    -0.07200
C368        C  0.22634524  0.36387366  0.83453965    -0.08000
C369        C  0.20565244  0.35416720  0.81501753    -0.02500
C370        C  0.16939826  0.32674590  0.81660319     0.04300
N371        N  0.14657205  0.31557725  0.79753007     0.66800
H372        H  0.12752458  0.28865807  0.83793908     0.15700
H373        H  0.25414382  0.38426464  0.83385138     0.15400
N374        N  0.23456262  0.35699759  0.87418526     0.74500
O375        O  0.14007656  0.28738379  0.78735135    -0.38900
O376        O  0.12780863  0.32975974  0.79362082    -0.38900
O377        O  0.25156662  0.34096857  0.87815835    -0.39600
O378        O  0.24224549  0.38528669  0.88467616    -0.39600
C379        C  0.14325564  0.36727108  0.17017639    -0.11900
C380        C  0.15352186  0.35710997  0.18982020     0.05100
C381        C  0.16208114  0.32939040  0.18828595    -0.07200
C382        C  0.15883561  0.31190193  0.16773498    -0.08000
C383        C  0.14850207  0.32222738  0.14822903    -0.02500
C384        C  0.14095932  0.35042938  0.14963105     0.04300
N385        N  0.12839363  0.36065956  0.13056567     0.66800
H386        H  0.13620870  0.38799807  0.17077035     0.15700
H387        H  0.16518379  0.29069039  0.16694263     0.15400
N388        N  0.17415918  0.31853409  0.20734191     0.74500
O389        O  0.09551747  0.34447006  0.12633113    -0.38900
O390        O  0.14891325  0.38928609  0.12042402    -0.38900
O391        O  0.15481328  0.28788377  0.21553842    -0.39600
O392        O  0.20651872  0.33620175  0.21284613    -0.39600
C393        C  0.14685834  0.23393542  0.01409388    -0.11900
C394        C  0.11818171  0.23177170  0.02626897     0.05100
C395        C  0.08764296  0.22653807  0.01468191    -0.07200
C396        C  0.08769220  0.22711414  0.99114273    -0.08000
C397        C  0.11789275  0.23285197  0.97901176    -0.02500
C398        C  0.14710692  0.23479870  0.99064733     0.04300
N399        N  0.17905868  0.24221670  0.97911323     0.66800
H400        H  0.17073587  0.23881409  0.02281089     0.15700
H401        H  0.06543614  0.22630321  0.98246085     0.15400
N402        N  0.05823179  0.22502496  0.02655852     0.74500
O403        O  0.20025382  0.27368493  0.97278425    -0.38900
O404        O  0.19008495  0.22023682  0.98037694    -0.38900
O405        O  0.05569649  0.25274502  0.02841505    -0.39600
O406        O  0.03221999  0.19516364  0.03201015    -0.39600
C407        C  0.04376820  0.30263653  0.91088066    -0.11900
C408        C  0.04541183  0.27142119  0.91403797     0.05100
C409        C  0.01332833  0.23859869  0.91657154    -0.07200
C410        C  0.48109949  0.23848841  0.91379492    -0.08000
C411        C  0.47964519  0.26993237  0.91082429    -0.02500
C412        C  0.51205084  0.30265643  0.90858053     0.04300
N413        N  0.51245017  0.33560859  0.90553853     0.66800
H414        H  0.06809306  0.32796699  0.90878579     0.15700
H415        H  0.45673078  0.21315523  0.91570715     0.15400
N416        N  0.01360969  0.20619833  0.92088362     0.74500
O417        O  0.51438344  0.35420797  0.92234889    -0.38900
O418        O  0.51620534  0.34853045  0.88614914    -0.38900
O419        O  0.02619144  0.20234784  0.93899949    -0.39600
O420        O  0.99954380  0.18066878  0.90714647    -0.39600
C421        C  0.26232696  0.30246403  0.92330137    -0.11900
C422        C  0.22989811  0.27044702  0.92176931     0.05100
C423        C  0.22992927  0.23774692  0.92123407    -0.07200
C424        C  0.26216658  0.23784104  0.92168019    -0.08000
C425        C  0.29461645  0.26995230  0.92187028    -0.02500
C426        C  0.29456423  0.30255592  0.92306791     0.04300
N427        N  0.32697730  0.33598823  0.92409829     0.66800
H428        H  0.26279135  0.32781115  0.92396776     0.15700
H429        H  0.26176337  0.21253012  0.92096703     0.15400
N430        N  0.19760470  0.20424083  0.91985601     0.74500
O431        O  0.33868396  0.35489961  0.90670574    -0.38900
O432        O  0.33996589  0.34941342  0.94289961    -0.38900
O433        O  0.18656370  0.18987113  0.90097246    -0.39600
O434        O  0.18454220  0.18591924  0.93733608    -0.39600
C435        C  0.29811902  0.17511995  0.83316853    -0.11900
C436        C  0.31622073  0.18973297  0.81298490     0.05100
C437        C  0.35037134  0.22090696  0.81398438    -0.07200
C438        C  0.36508881  0.23671572  0.83472512    -0.08000
C439        C  0.34710999  0.22180065  0.85481518    -0.02500
C440        C  0.31315458  0.19067466  0.85387677     0.04300
N441        N  0.29248698  0.17574893  0.87371861     0.66800
H442        H  0.27184717  0.15174555  0.83291219     0.15700
H443        H  0.39102576  0.26054981  0.83511016     0.15400
N444        N  0.37029222  0.23766276  0.79415970     0.74500
O445        O  0.27444805  0.18886075  0.88159761    -0.38900
O446        O  0.28713049  0.14602102  0.88083135    -0.38900
O447        O  0.37847876  0.26943200  0.78994715    -0.39600
O448        O  0.38673983  0.22436846  0.78424780    -0.39600
C449        C  0.37736042  0.23553482  0.16492672    -0.11900
C450        C  0.37017150  0.21510419  0.14536138     0.05100
C451        C  0.36370717  0.17960482  0.14728204    -0.07200
C452        C  0.36652397  0.16631868  0.16819596    -0.08000
C453        C  0.37407812  0.18704990  0.18761312    -0.02500
C454        C  0.37893374  0.22180707  0.18583590     0.04300
N455        N  0.38794173  0.24456852  0.20494617     0.66800
H456        H  0.38243462  0.26266308  0.16401923     0.15700
H457        H  0.36208797  0.13943361  0.16931205     0.15400
N458        N  0.35440807  0.15659136  0.12825289     0.74500
O459        O  0.42028006  0.26532743  0.20949242    -0.38900
O460        O  0.36431148  0.24896626  0.21439551    -0.38900
O461        O  0.37528783  0.14603659  0.12164318    -0.39600
O462        O  0.32266768  0.14083480  0.12139767    -0.39600
C463        C  0.50571654  0.29917767  0.07698652    -0.11900
C464        C  0.47532833  0.26508083  0.07833029     0.05100
C465        C  0.47958327  0.23493835  0.07885084    -0.07200
C466        C  0.01222906  0.23793314  0.08706988    -0.08000
C467        C  0.04256479  0.27094665  0.08208824    -0.02500
C468        C  0.03807555  0.29989302  0.07583510     0.04300
N469        N  0.06772249  0.33372852  0.06985524     0.66800
H470        H  0.50274139  0.32253197  0.07592227     0.15700
H471        H  0.01483681  0.21518630  0.09172811     0.15400
N472        N  0.44962793  0.19970119  0.08003679     0.74500
O473        O  0.07912125  0.33903236  0.04996723    -0.38900
O474        O  0.07741535  0.35999296  0.08285203    -0.38900
O475        O  0.43623377  0.18267991  0.06217931    -0.39600
O476        O  0.44209690  0.18310177  0.09838064    -0.39600
C477        C  0.26068320  0.30135227  0.08968263    -0.11900
C478        C  0.22736205  0.27012325  0.08970397     0.05100
C479        C  0.22604554  0.23673142  0.08891580    -0.07200
C480        C  0.25759757  0.23522387  0.08831233    -0.08000
C481        C  0.29091414  0.26644314  0.08855084    -0.02500
C482        C  0.29224005  0.29984584  0.08911905     0.04300
N483        N  0.32537168  0.33262883  0.08831422     0.66800
H484        H  0.26232993  0.32715247  0.09002065     0.15700
H485        H  0.25594170  0.20942938  0.08768459     0.15400
N486        N  0.19290982  0.20400393  0.08787747     0.74500
O487        O  0.33995660  0.34520021  0.06965777    -0.38900
O488        O  0.33693106  0.35165658  0.10566901    -0.38900
O489        O  0.18006381  0.19040704  0.06908116    -0.39600
O490        O  0.18006311  0.18573221  0.10540717    -0.39600
C491        C  0.43176545  0.31509517  0.01349238    -0.11900
C492        C  0.39877887  0.30513559  0.02360016     0.05100
C493        C  0.37017217  0.30060931  0.01021989    -0.07200
C494        C  0.37389907  0.30286080  0.98691819    -0.08000
C495        C  0.40558559  0.30879842  0.97667285    -0.02500
C496        C  0.43528259  0.31679821  0.99006163     0.04300
N497        N  0.46790207  0.32302757  0.98008753     0.66800
H498        H  0.45377583  0.31819419  0.02363640     0.15700
H499        H  0.35075759  0.29618314  0.97675008     0.15400
N500        N  0.33612126  0.29007507  0.01993004     0.74500
O501        O  0.49130052  0.35434185  0.97480461    -0.38900
O502        O  0.47512646  0.29817366  0.97911628    -0.38900
O503        O  0.32584168  0.31259355  0.02182304    -0.39600
O504        O  0.31415566  0.25741127  0.02293871    -0.39600
O505        O  0.32414914  0.73513653  0.08185548    -0.71400
O506        O  0.41227315  0.73601401  0.07519449    -0.71600
O507        O  0.36176716  0.71321355  0.10692623    -0.71500
O508        O  0.37438434  0.75653397  0.05010741    -0.71500
O509        O  0.40399173  0.80931164  0.06500711    -0.71500
O510        O  0.38788194  0.76526917  0.12269632    -0.71500
O511        O  0.43924059  0.78786620  0.09140631    -0.71400
O512        O  0.35262834  0.78824809  0.09622227    -0.71600
V513        V  0.36857261  0.73620673  0.07886021     1.35200
V514        V  0.39526030  0.78658543  0.09364060     1.35200
C515        C  0.32376289  0.76242446  0.08933178     0.77800
C516        C  0.44086687  0.76249596  0.08214822     0.77900
C517        C  0.37325846  0.73157009  0.12454127     0.77700
C518        C  0.39182117  0.78995470  0.04773192     0.77700
O519        O  0.41567988  0.74251461  0.91931758    -0.71400
O520        O  0.32873437  0.74289663  0.92696744    -0.71600
O521        O  0.35629675  0.72165730  0.89453870    -0.71500
O522        O  0.38641565  0.76268380  0.95185462    -0.71500
O523        O  0.40959965  0.81605898  0.93786721    -0.71500
O524        O  0.38163967  0.77428239  0.87942195    -0.71500
O525        O  0.35288747  0.79546963  0.91177748    -0.71400
O526        O  0.44009770  0.79594310  0.90558245    -0.71600
V527        V  0.37247513  0.74350663  0.92283575     1.35200
V528        V  0.39578613  0.79442365  0.90884995     1.35200
C529        C  0.44312557  0.76962042  0.91163749     0.77800
C530        C  0.32616807  0.76944616  0.92072728     0.77900
C531        C  0.36246004  0.74067140  0.87730025     0.77700
C532        C  0.40125942  0.79592728  0.95484232     0.77700
O533        O  0.19339246  0.79699684  0.08077335    -0.71400
O534        O  0.10569600  0.79689300  0.07442331    -0.71600
O535        O  0.15633096  0.81990122  0.10586874    -0.71500
O536        O  0.14244302  0.77533835  0.04929055    -0.71500
O537        O  0.11130629  0.72306084  0.06458070    -0.71500
O538        O  0.13166988  0.76826371  0.12228667    -0.71500
O539        O  0.07897174  0.74641031  0.09211335    -0.71400
O540        O  0.16436255  0.74362178  0.09465193    -0.71600
V541        V  0.14913560  0.79634184  0.07795276     1.35200
V542        V  0.12227687  0.74638061  0.09319108     1.35200
C543        C  0.19349286  0.76952586  0.08809968     0.77800
C544        C  0.07719357  0.77103917  0.08202070     0.77900
C545        C  0.14589604  0.80194677  0.12370828     0.77700
C546        C  0.12303839  0.74202011  0.04709989     0.77700
O547        O  0.10307388  0.79495272  0.91944178    -0.71400
O548        O  0.19029534  0.79465100  0.92603906    -0.71600
O549        O  0.16274219  0.81676428  0.89444078    -0.71500
O550        O  0.13225287  0.77417603  0.95133467    -0.71500
O551        O  0.11029776  0.72125413  0.93677542    -0.71500
O552        O  0.13716129  0.76470684  0.87860021    -0.71500
O553        O  0.16650140  0.74305567  0.90962883    -0.71400
O554        O  0.07884154  0.74144772  0.90561992    -0.71600
V555        V  0.14645176  0.79409855  0.92247620     1.35200
V556        V  0.12344847  0.74362015  0.90786272     1.35200
C557        C  0.07564305  0.76748676  0.91216364     0.77800
C558        C  0.19314806  0.76863536  0.91879001     0.77900
C559        C  0.15660348  0.79837898  0.87687623     0.77700
C560        C  0.11765815  0.74090312  0.95398934     0.77700
O561        O  0.29530843  0.61965725  0.74915203    -0.71400
O562        O  0.29315048  0.70666868  0.74325125    -0.71600
O563        O  0.31686278  0.67931313  0.77449719    -0.71500
O564        O  0.27332328  0.64909664  0.71783445    -0.71500
O565        O  0.22071114  0.62504841  0.73301919    -0.71500
O566        O  0.26509173  0.65352244  0.79061189    -0.71500
O567        O  0.24157276  0.68115712  0.75967735    -0.71400
O568        O  0.24267588  0.59512863  0.76411838    -0.71600
V569        V  0.29371809  0.66303180  0.74654459     1.35200
V570        V  0.24360504  0.63902014  0.76163611     1.35200
C571        C  0.26852023  0.59208904  0.75710787     0.77800
C572        C  0.26633398  0.70825452  0.75029036     0.77900
C573        C  0.29868511  0.67314681  0.79217402     0.77700
C574        C  0.23999698  0.63373938  0.71558296     0.77700
O575        O  0.29653304  0.70674728  0.58700390    -0.71400
O576        O  0.29525175  0.61860798  0.59704576    -0.71600
O577        O  0.31877138  0.66725294  0.56407881    -0.71500
O578        O  0.27455120  0.65820216  0.62025462    -0.71500
O579        O  0.22226800  0.62597015  0.60540065    -0.71500
O580        O  0.26722626  0.64164916  0.54785632    -0.71500
O581        O  0.24479126  0.59107757  0.57955987    -0.71400
O582        O  0.24313793  0.67679978  0.57348285    -0.71600
V583        V  0.29533305  0.66230434  0.59177082     1.35200
V584        V  0.24540224  0.63459202  0.57679907     1.35200
C585        C  0.26928846  0.70647548  0.57900507     0.77800
C586        C  0.26928457  0.58966420  0.58994971     0.77900
C587        C  0.30085162  0.65583265  0.54636243     0.77700
C588        C  0.24130839  0.63913328  0.62267726     0.77700
O589        O  0.22636780  0.92397578  0.75077459    -0.71400
O590        O  0.22508220  0.83521056  0.74563697    -0.71600
O591        O  0.20584354  0.86605285  0.77709537    -0.71500
O592        O  0.24379725  0.89087707  0.71875487    -0.71500
O593        O  0.29779599  0.91555564  0.73157679    -0.71500
O594        O  0.25891894  0.89062640  0.79125344    -0.71500
O595        O  0.27872864  0.86077527  0.75910498    -0.71400
O596        O  0.28009781  0.94812702  0.76390969    -0.71600
V597        V  0.22634027  0.87978108  0.74836205     1.35200
V598        V  0.27782519  0.90355315  0.76129035     1.35200
C599        C  0.25399960  0.95140510  0.75799261     0.77800
C600        C  0.25227064  0.83338950  0.75131711     0.77900
C601        C  0.22535916  0.87196847  0.79396973     0.77700
C602        C  0.27674241  0.90532651  0.71498557     0.77700
O603        O  0.22697868  0.83261769  0.58260296    -0.71400
O604        O  0.22667698  0.91980413  0.59245872    -0.71600
O605        O  0.20778290  0.87358926  0.55852017    -0.71500
O606        O  0.24450927  0.87907914  0.61665888    -0.71500
O607        O  0.29859267  0.91165041  0.60428846    -0.71500
O608        O  0.26127738  0.90095456  0.54475959    -0.71500
O609        O  0.27966732  0.94868431  0.57790641    -0.71400
O610        O  0.28170544  0.86303288  0.57114761    -0.71600
V611        V  0.22749667  0.87666625  0.58724128     1.35200
V612        V  0.27923802  0.90527416  0.57466901     1.35200
C613        C  0.25512183  0.83317418  0.57600595     0.77800
C614        C  0.25354433  0.94917222  0.58685005     0.77900
C615        C  0.22795910  0.88732948  0.54179175     0.77700
C616        C  0.27738694  0.89764655  0.62065867     0.77700
O617        O  0.20367672  0.92749921  0.25166682    -0.71400
O618        O  0.11799475  0.83791880  0.25775996    -0.71600
O619        O  0.16833208  0.86772853  0.22603305    -0.71500
O620        O  0.15350742  0.89618880  0.28323676    -0.71500
O621        O  0.12290004  0.91832316  0.26855638    -0.71500
O622        O  0.13942913  0.89094663  0.21063568    -0.71500
O623        O  0.08917335  0.86133023  0.24227407    -0.71400
O624        O  0.17347499  0.94992710  0.23700594    -0.71600
V625        V  0.16050191  0.88291311  0.25429944     1.35200
V626        V  0.13202347  0.90480036  0.23978863     1.35200
C627        C  0.20272143  0.95447423  0.24424010     0.77800
C628        C  0.08878215  0.83490112  0.25136854     0.77900
C629        C  0.15515977  0.87291306  0.20860891     0.77700
C630        C  0.13494735  0.91097674  0.28578159     0.77700
O631        O  0.11335180  0.84191363  0.41580528    -0.71400
O632        O  0.19899234  0.93090689  0.40687980    -0.71600
O633        O  0.17277695  0.88284108  0.43988038    -0.71500
O634        O  0.14082852  0.88986952  0.38243838    -0.71500
O635        O  0.11821424  0.92108164  0.39578766    -0.71500
O636        O  0.14494892  0.90787843  0.45477738    -0.71500
O637        O  0.17391817  0.95810628  0.42266944    -0.71400
O638        O  0.08756572  0.87088563  0.42782479    -0.71600
V639        V  0.15588329  0.88681669  0.41154622     1.35200
V640        V  0.13150973  0.91379747  0.42508868     1.35200
C641        C  0.08547602  0.84159370  0.42269074     0.77800
C642        C  0.20087437  0.95972373  0.41341881     0.77900
C643        C  0.16495149  0.89437690  0.45714062     0.77700
C644        C  0.12564625  0.90783232  0.37906869     0.77700
O645        O  0.32917070  0.62176359  0.25530910    -0.71400
O646        O  0.41699313  0.71012736  0.25913097    -0.71600
O647        O  0.36565338  0.67939885  0.22836845    -0.71500
O648        O  0.38072321  0.65439741  0.28612758    -0.71500
O649        O  0.41033851  0.63041471  0.27224055    -0.71500
O650        O  0.39163824  0.65255555  0.21335579    -0.71500
O651        O  0.44372880  0.68445601  0.24365263    -0.71400
O652        O  0.35805530  0.59677457  0.24196865    -0.71600
V653        V  0.37344501  0.66574138  0.25689751     1.35200
V654        V  0.40020123  0.64138730  0.24300069     1.35200
C655        C  0.32909631  0.59383230  0.24862144     0.77800
C656        C  0.44556112  0.71196159  0.25225433     0.77900
C657        C  0.37706602  0.67158410  0.21104435     0.77700
C658        C  0.39950340  0.64003157  0.28919119     0.77700
O659        O  0.41809025  0.71394092  0.41790768    -0.71400
O660        O  0.33343836  0.62409516  0.41067883    -0.71600
O661        O  0.35935074  0.67313999  0.44300754    -0.71500
O662        O  0.39111533  0.66503269  0.38549801    -0.71500
O663        O  0.41598778  0.63627558  0.39914602    -0.71500
O664        O  0.38696044  0.64802492  0.45777808    -0.71500
O665        O  0.35978317  0.59801006  0.42588120    -0.71400
O666        O  0.44459683  0.68671744  0.43118549    -0.71600
V667        V  0.37608937  0.66861282  0.41458387     1.35200
V668        V  0.40146458  0.64292295  0.42828754     1.35200
C669        C  0.44627948  0.71547272  0.42509872     0.77800
C670        C  0.33217468  0.59566921  0.41731313     0.77900
C671        C  0.36653048  0.66100580  0.46015595     0.77700
C672        C  0.40818801  0.64882556  0.38234663     0.77700
C673        C  0.43371776  0.67152215  0.32241005    -0.11900
C674        C  0.41084489  0.63870261  0.31220481     0.05100
C675        C  0.39368477  0.60775752  0.32550571    -0.07200
C676        C  0.39709067  0.61066006  0.34894143    -0.08000
C677        C  0.41693104  0.64420170  0.35917730    -0.02500
C678        C  0.43682085  0.67449181  0.34570099     0.04300
N679        N  0.45752411  0.70901452  0.35554255     0.66800
H680        H  0.44696798  0.69550539  0.31234518     0.15700
H681        H  0.38116106  0.58731670  0.35914525     0.15400
N682        N  0.36970546  0.57401240  0.31575665     0.74500
O683        O  0.48960966  0.72008364  0.36057145    -0.38900
O684        O  0.44571533  0.73042205  0.35577225    -0.38900
O685        O  0.37816916  0.55002488  0.31505480    -0.39600
O686        O  0.33788987  0.56593734  0.31210561    -0.39600
C687        C  0.26682281  0.99590564  0.41266076    -0.11900
C688        C  0.23393009  0.99451180  0.41114376     0.05100
C689        C  0.23466989  0.52741809  0.41078292    -0.07200
C690        C  0.26684644  0.55974900  0.41122745    -0.08000
C691        C  0.29907942  0.56065180  0.41560447    -0.02500
C692        C  0.29872623  0.52806043  0.41899108     0.04300
N693        N  0.33050343  0.52717543  0.42395569     0.66800
H694        H  0.26786547  0.97150325  0.41407926     0.15700
H695        H  0.26641056  0.58426235  0.40856826     0.15400
N696        N  0.20037145  0.02660715  0.40655078     0.74500
O697        O  0.33862979  0.52616439  0.44409214    -0.38900
O698        O  0.34637522  0.52054971  0.40855466    -0.38900
O699        O  0.18819690  0.03670932  0.42242670    -0.39600
O700        O  0.18694428  0.02229962  0.38730593    -0.39600
C701        C  0.02024805  0.80935005  0.41686153    -0.11900
C702        C  0.05060797  0.80841068  0.42393661     0.05100
C703        C  0.04679978  0.77621173  0.43207902    -0.07200
C704        C  0.51147043  0.74863791  0.43298373    -0.08000
C705        C  0.48095478  0.74945246  0.42575007    -0.02500
C706        C  0.48492223  0.78222742  0.41824042     0.04300
N707        N  0.45532892  0.78481262  0.41012455     0.66800
H708        H  0.02285024  0.83388461  0.41036476     0.15700
H709        H  0.50935127  0.72399998  0.43883031     0.15400
N710        N  0.07682764  0.77441612  0.44018678     0.74500
O711        O  0.43763962  0.79263768  0.42348843    -0.38900
O712        O  0.45115842  0.78594724  0.38931583    -0.38900
O713        O  0.08578981  0.78148846  0.46043867    -0.39600
O714        O  0.09067092  0.76044329  0.42822071    -0.39600
C715        C  0.26297026  0.55591084  0.24681156    -0.11900
C716        C  0.29633081  0.55832046  0.24856925     0.05100
C717        C  0.29792887  0.52648139  0.25014753    -0.07200
C718        C  0.26665895  0.49329250  0.24961475    -0.08000
C719        C  0.23468384  0.99064460  0.24461741    -0.02500
C720        C  0.23163142  0.52264220  0.24621545     0.04300
N721        N  0.19873676  0.02059939  0.24099810     0.66800
H722        H  0.26115210  0.57993255  0.24583332     0.15700
H723        H  0.27069421  0.97028048  0.24895208     0.15400
N724        N  0.33100214  0.52724085  0.25311408     0.74500
O725        O  0.18133377  0.51895729  0.26301909    -0.38900
O726        O  0.18964029  0.02727865  0.22240609    -0.38900
O727        O  0.33960377  0.52237795  0.27237197    -0.39600
O728        O  0.34728667  0.52481386  0.23624735    -0.39600
C729        C  0.02408317  0.80569932  0.25783612    -0.11900
C730        C  0.05430330  0.80216459  0.25466266     0.05100
C731        C  0.05034740  0.76792153  0.25366512    -0.07200
C732        C  0.51125012  0.74148441  0.25013809    -0.08000
C733        C  0.48085798  0.74463557  0.25414603    -0.02500
C734        C  0.48534931  0.77872353  0.25863620     0.04300
N735        N  0.45572429  0.78377508  0.26324185     0.66800
H736        H  0.02694166  0.83195924  0.25928072     0.15700
H737        H  0.50865399  0.71575160  0.24656936     0.15400
N738        N  0.08029348  0.76306039  0.25022738     0.74500
O739        O  0.43997430  0.77397328  0.28187486    -0.38900
O740        O  0.45072759  0.80483970  0.25123857    -0.38900
O741        O  0.09318028  0.75490978  0.26656439    -0.39600
O742        O  0.08917643  0.76004292  0.23056177    -0.39600
C743        C  0.09646612  0.88894920  0.31921747    -0.11900
C744        C  0.12631170  0.91693437  0.30868208     0.05100
C745        C  0.15146104  0.94561187  0.32166503    -0.07200
C746        C  0.14791611  0.94453709  0.34505681    -0.08000
C747        C  0.11998961  0.91479148  0.35574240    -0.02500
C748        C  0.09327118  0.88757042  0.34262958     0.04300
N749        N  0.06461646  0.85678328  0.35292544     0.66800
H750        H  0.07724693  0.86654579  0.30939893     0.15700
H751        H  0.16904564  0.96518223  0.35496046     0.15400
N752        N  0.18253225  0.97417403  0.31153759     0.74500
O753        O  0.03539286  0.85574668  0.35646657    -0.38900
O754        O  0.06644194  0.82870550  0.35494899    -0.38900
O755        O  0.18523883  0.00448816  0.30972585    -0.39600
O756        O  0.20940103  0.97078239  0.30790350    -0.39600
C757        C  0.17925932  0.88793913  0.51975567    -0.11900
C758        C  0.21227947  0.88884634  0.51985471     0.05100
C759        C  0.22955640  0.89226431  0.49920186    -0.07200
C760        C  0.21346627  0.89374473  0.47916605    -0.08000
C761        C  0.18048883  0.89284304  0.47907802    -0.02500
C762        C  0.16359347  0.89030739  0.49973405     0.04300
N763        N  0.13009906  0.88916255  0.50068884     0.66800
H764        H  0.16561489  0.88581738  0.53536300     0.15700
H765        H  0.22718566  0.89607345  0.46355553     0.15400
N766        N  0.26317173  0.89368446  0.49815939     0.74500
O767        O  0.10161306  0.85953574  0.49964953    -0.38900
O768        O  0.12895754  0.91684838  0.50595853    -0.38900
O769        O  0.26429945  0.86561781  0.49410789    -0.39600
O770        O  0.29141067  0.92354680  0.49718411    -0.39600
C771        C  0.29999748  0.93764005  0.67867573    -0.11900
C772        C  0.28860048  0.90670802  0.69154870     0.05100
C773        C  0.28052920  0.87457105  0.68060429    -0.07200
C774        C  0.28049487  0.87291027  0.65719784    -0.08000
C775        C  0.28926621  0.90310074  0.64423936    -0.02500
C776        C  0.30087239  0.93612566  0.65511509     0.04300
N777        N  0.31005705  0.96752348  0.64245458     0.66800
H778        H  0.30586924  0.96238874  0.68677890     0.15700
H779        H  0.27143122  0.84738564  0.64910959     0.15400
N780        N  0.27030877  0.84273244  0.69304382     0.74500
O781        O  0.28825520  0.97872064  0.64106992    -0.38900
O782        O  0.34183536  0.98724703  0.63614396    -0.38900
O783        O  0.23769272  0.82067993  0.69596818    -0.39600
O784        O  0.29284031  0.83276286  0.69592813    -0.39600
C785        C  0.23256115  0.52380322  0.59101650    -0.11900
C786        C  0.26639921  0.55442332  0.59321669     0.05100
C787        C  0.29624183  0.55018689  0.59649269    -0.07200
C788        C  0.29229733  0.51608788  0.59516713    -0.08000
C789        C  0.25553846  0.98379074  0.59047132    -0.02500
C790        C  0.22848869  0.48967838  0.59044898     0.04300
N791        N  0.19057607  0.95793885  0.58632093     0.66800
H792        H  0.20911644  0.52634413  0.58902283     0.15700
H793        H  0.31247701  0.01103987  0.59551008     0.15400
N794        N  0.33077894  0.58006837  0.60054315     0.74500
O795        O  0.17082595  0.94397732  0.60317980    -0.38900
O796        O  0.17759950  0.94916650  0.56693690    -0.38900
O797        O  0.33914228  0.59210562  0.62018850    -0.39600
O798        O  0.35490730  0.58895712  0.58598754    -0.39600
C799        C  0.29225693  0.80380765  0.57513720    -0.11900
C800        C  0.25814508  0.80035733  0.57503088     0.05100
C801        C  0.22810450  0.76578588  0.57499199    -0.07200
C802        C  0.23254128  0.73584666  0.57586571    -0.08000
C803        C  0.26660113  0.73931647  0.57674553    -0.02500
C804        C  0.29668213  0.77379931  0.57589385     0.04300
N805        N  0.33186553  0.77884753  0.57511254     0.66800
H806        H  0.31578660  0.83000417  0.57487646     0.15700
H807        H  0.20899007  0.70966368  0.57621267     0.15400
N808        N  0.19286642  0.76046067  0.57372145     0.74500
O809        O  0.34442361  0.77559453  0.55673001    -0.38900
O810        O  0.35213953  0.79191139  0.59177525    -0.38900
O811        O  0.17807741  0.75572865  0.55489499    -0.39600
O812        O  0.17448507  0.75407604  0.59132422    -0.39600
C813        C  0.30288892  0.66081079  0.50472458    -0.11900
C814        C  0.31889985  0.65868590  0.52455148     0.05100
C815        C  0.35123528  0.65799876  0.52303033    -0.07200
C816        C  0.36621846  0.65870500  0.50200180    -0.08000
C817        C  0.35027474  0.66100738  0.48219340    -0.02500
C818        C  0.31823881  0.66219992  0.48375906     0.04300
N819        N  0.29996351  0.66325874  0.46418331     0.66800
H820        H  0.27813246  0.66120346  0.50545532     0.15700
H821        H  0.39063477  0.65766985  0.50121593     0.15400
N822        N  0.36858850  0.65503107  0.54253143     0.74500
O823        O  0.27868277  0.63457970  0.45436871    -0.38900
O824        O  0.30073879  0.69185577  0.45887004    -0.38900
O825        O  0.37196295  0.62788521  0.54488124    -0.39600
O826        O  0.38775810  0.68252141  0.55405146    -0.39600
C827        C  0.23201904  0.52600551  0.76078013    -0.11900
C828        C  0.26585795  0.55641739  0.75770295     0.05100
C829        C  0.29556601  0.55163376  0.75503963    -0.07200
C830        C  0.29096541  0.51713091  0.75535454    -0.08000
C831        C  0.25705196  0.98707830  0.75885052    -0.02500
C832        C  0.22744117  0.49156827  0.76099607     0.05500
N833        N  0.19344674  0.96185517  0.76821154     0.66800
H834        H  0.20875157  0.52882625  0.76302152     0.15700
H835        H  0.31370799  0.01451301  0.75238672     0.15400
N836        N  0.33062309  0.58140713  0.75229828     0.74500
O837        O  0.18744098  0.94917109  0.78776971    -0.38900
O838        O  0.16799889  0.95188336  0.75463585    -0.38900
O839        O  0.35056772  0.59431090  0.76911962    -0.39600
O840        O  0.34356327  0.59077252  0.73290187    -0.39600
C841        C  0.22945732  0.73713128  0.75283058    -0.11900
C842        C  0.26280214  0.74032615  0.74800961     0.05100
C843        C  0.29162914  0.77403774  0.74235600    -0.07200
C844        C  0.28735783  0.80395528  0.74330864    -0.08000
C845        C  0.25432609  0.80073409  0.74882288    -0.02500
C846        C  0.22500794  0.76691597  0.75314496     0.04300
N847        N  0.19142408  0.76272443  0.75978566     0.66800
H848        H  0.20674120  0.71147693  0.75695155     0.15700
H849        H  0.31005841  0.82991549  0.73974334     0.15400
N850        N  0.32547566  0.77859388  0.73602264     0.74500
O851        O  0.16700662  0.75349420  0.74550804    -0.38900
O852        O  0.18417176  0.76185158  0.78032815    -0.38900
O853        O  0.33214575  0.77706742  0.71560111    -0.39600
O854        O  0.35062893  0.79117033  0.74995087    -0.39600
C855        C  0.22085210  0.59941211  0.68019763    -0.11900
C856        C  0.22547909  0.62881391  0.69276638     0.05100
C857        C  0.22703524  0.65826947  0.68160202    -0.07200
C858        C  0.22808159  0.65965700  0.65815194    -0.08000
C859        C  0.22659975  0.63157685  0.64557656    -0.02500
C860        C  0.22099819  0.60043658  0.65669815     0.04300
N861        N  0.22018690  0.57162595  0.64445377     0.66800
H862        H  0.22040660  0.57700505  0.68854892     0.15700
H863        H  0.23281647  0.68385248  0.64982216     0.15400
N864        N  0.23145854  0.68860976  0.69390352     0.74500
O865        O  0.24813428  0.56956241  0.64277111    -0.38900
O866        O  0.19061058  0.54508760  0.63923069    -0.38900
O867        O  0.26093523  0.71731458  0.69336755    -0.39600
O868        O  0.20452705  0.68852145  0.70208803    -0.39600
C869        C  0.20494541  0.85042836  0.85623620    -0.11900
C870        C  0.17370104  0.81665813  0.85539679     0.05100
C871        C  0.16026187  0.80155564  0.83424336    -0.07200
C872        C  0.17700559  0.82073647  0.81471871    -0.08000
C873        C  0.20827543  0.85438289  0.81555522    -0.02500
C874        C  0.22245908  0.86899004  0.83664551     0.04300
N875        N  0.25394556  0.90305603  0.83852392     0.66800
H876        H  0.21615168  0.86247471  0.87223597     0.15700
H877        H  0.16591458  0.80866657  0.79870962     0.15400
N878        N  0.12975820  0.76677933  0.83218476     0.74500
O879        O  0.25178537  0.93103942  0.83733046    -0.38900
O880        O  0.28258456  0.90504608  0.84493743    -0.38900
O881        O  0.10049838  0.76350270  0.82594437    -0.39600
O882        O  0.13372740  0.73978542  0.83229456    -0.39600
C883        C  0.14317626  0.86476100  0.16745213    -0.11900
C884        C  0.15616412  0.85648415  0.18667286     0.05100
C885        C  0.16641411  0.83003489  0.18483230    -0.07200
C886        C  0.16242209  0.81204687  0.16440790    -0.08000
C887        C  0.14922938  0.82039866  0.14538114    -0.02500
C888        C  0.13973040  0.84715634  0.14706766     0.04300
N889        N  0.12363895  0.85467498  0.12864746     0.66800
H890        H  0.13458339  0.88432038  0.16832797     0.15700
H891        H  0.17015630  0.79184890  0.16334996     0.15400
N892        N  0.18059266  0.82070719  0.20351734     0.74500
O893        O  0.09031386  0.83673105  0.12625665    -0.38900
O894        O  0.14149533  0.88282806  0.11741640    -0.38900
O895        O  0.16176189  0.79126847  0.21328905    -0.39600
O896        O  0.21359177  0.83826253  0.20732381    -0.39600
C897        C  0.13895346  0.72339459  0.01175563    -0.11900
C898        C  0.11361882  0.72709968  0.02429842     0.05100
C899        C  0.08490178  0.72688671  0.01313541    -0.07200
C900        C  0.08419321  0.72715412  0.98964833    -0.08000
C901        C  0.11144477  0.72691582  0.97706020    -0.02500
C902        C  0.13799692  0.72314209  0.98826524     0.04300
N903        N  0.16662870  0.72343034  0.97615707     0.66800
H904        H  0.16145849  0.72419471  0.02011746     0.15700
H905        H  0.06390967  0.73046372  0.98129183     0.15400
N906        N  0.05841086  0.73034212  0.02541739     0.74500
O907        O  0.19271057  0.75286178  0.97012967    -0.38900
O908        O  0.16989725  0.69603852  0.97644662    -0.38900
O909        O  0.05898038  0.75979646  0.02563372    -0.39600
O910        O  0.03145611  0.70278373  0.03284932    -0.39600
C911        C  0.03876978  0.79654779  0.90828605    -0.11900
C912        C  0.04047432  0.76543025  0.91171742     0.05100
C913        C  0.00846471  0.73275532  0.91484323    -0.07200
C914        C  0.48010842  0.74097806  0.91780370    -0.08000
C915        C  0.47811696  0.77087167  0.91068485    -0.02500
C916        C  0.51001413  0.80195905  0.90423146     0.04300
N917        N  0.50958385  0.83230138  0.89521083     0.66800
H918        H  0.06304652  0.82177663  0.90574753     0.15700
H919        H  0.45620946  0.71684270  0.92285826     0.15400
N920        N  0.00891972  0.70051895  0.91938242     0.74500
O921        O  0.52002673  0.86000268  0.90697780    -0.38900
O922        O  0.50416176  0.83338193  0.87456618    -0.38900
O923        O  0.02135506  0.69690361  0.93762669    -0.39600
O924        O  0.99564825  0.67508993  0.90554360    -0.39600
C925        C  0.25859131  0.80046079  0.92389001    -0.11900
C926        C  0.22679965  0.76814409  0.92078219     0.05100
C927        C  0.22789647  0.73601271  0.91955725    -0.07200
C928        C  0.26046608  0.73696950  0.92115224    -0.08000
C929        C  0.29234697  0.76944571  0.92287776    -0.02500
C930        C  0.29125692  0.80141356  0.92477339     0.04300
N931        N  0.32297460  0.83493303  0.92805809     0.66800
H932        H  0.25824164  0.82531959  0.92520954     0.15700
H933        H  0.26089155  0.71214634  0.91995006     0.15400
N934        N  0.19645594  0.70225418  0.91615982     0.74500
O935        O  0.33455470  0.85768457  0.91250394    -0.38900
O936        O  0.33557223  0.84409346  0.94750348    -0.38900
O937        O  0.18594904  0.69182746  0.89646199    -0.39600
O938        O  0.18452784  0.67994393  0.93194538    -0.39600
C939        C  0.29703273  0.67713541  0.83393943    -0.11900
C940        C  0.31625716  0.68984149  0.81389571     0.05100
C941        C  0.35106826  0.72003412  0.81492235    -0.07200
C942        C  0.36557634  0.73657748  0.83555453    -0.08000
C943        C  0.34638788  0.72346982  0.85552267    -0.02500
C944        C  0.31165003  0.69354787  0.85451789     0.04300
N945        N  0.28974015  0.68106355  0.87406701     0.66800
H946        H  0.27016122  0.65470908  0.83365586     0.15700
H947        H  0.39209628  0.75958059  0.83595876     0.15400
N948        N  0.37174770  0.73516738  0.79512849     0.74500
O949        O  0.27100433  0.69478763  0.87941535    -0.38900
O950        O  0.28356423  0.65214571  0.88303795    -0.38900
O951        O  0.37401200  0.76309169  0.78695529    -0.39600
O952        O  0.39304370  0.72506850  0.78861418    -0.39600
C953        C  0.37839520  0.73471951  0.16620036    -0.11900
C954        C  0.37098126  0.71425036  0.14662457     0.05100
C955        C  0.36442571  0.67868630  0.14855507    -0.07200
C956        C  0.36707229  0.66534286  0.16951739    -0.08000
C957        C  0.37459652  0.68604408  0.18895437    -0.02500
C958        C  0.37990729  0.72095839  0.18712183     0.04300
N959        N  0.38951507  0.74389380  0.20617502     0.66800
H960        H  0.38372527  0.76193448  0.16529272     0.15700
H961        H  0.36245581  0.63839624  0.17066493     0.15400
N962        N  0.35513352  0.65562609  0.12952406     0.74500
O963        O  0.42200123  0.76441628  0.21046165    -0.38900
O964        O  0.36627419  0.74865295  0.21585161    -0.38900
O965        O  0.37441407  0.64252856  0.12412384    -0.39600
O966        O  0.32416143  0.64216453  0.12153829    -0.39600
C967        C  0.50626706  0.79853369  0.07726419    -0.11900
C968        C  0.47580875  0.76472225  0.07972099     0.05100
C969        C  0.47981002  0.73451568  0.08134972    -0.07200
C970        C  0.01170076  0.73415876  0.08132850    -0.08000
C971        C  0.04202700  0.76818230  0.07917344    -0.02500
C972        C  0.03754259  0.79795095  0.07571296     0.04300
N973        N  0.06724243  0.83292583  0.07206952     0.66800
H974        H  0.50341299  0.82188644  0.07554493     0.15700
H975        H  0.01450932  0.71083837  0.08343208     0.15400
N976        N  0.44981754  0.69975045  0.08466258     0.74500
O977        O  0.08355911  0.84007655  0.05358268    -0.38900
O978        O  0.07184113  0.85818316  0.08481830    -0.38900
O979        O  0.43524851  0.67984739  0.06797911    -0.39600
O980        O  0.44312840  0.68642632  0.10404216    -0.39600
C981        C  0.25975960  0.79883898  0.08846095    -0.11900
C982        C  0.22662550  0.76734754  0.08884835     0.05100
C983        C  0.22578607  0.73419722  0.08969187    -0.07200
C984        C  0.25758659  0.73317148  0.08987541    -0.08000
C985        C  0.29068182  0.76464752  0.08953332    -0.02500
C986        C  0.29156882  0.79781340  0.08888872     0.04300
N987        N  0.32451178  0.83076746  0.08784282     0.66800
H988        H  0.26106967  0.82446720  0.08776677     0.15700
H989        H  0.25631182  0.70754571  0.09033392     0.15400
N990        N  0.19289861  0.70115494  0.08969816     0.74500
O991        O  0.33933052  0.84263205  0.06914742    -0.38900
O992        O  0.33554676  0.85062703  0.10487702    -0.38900
O993        O  0.18021052  0.68515640  0.07144556    -0.39600
O994        O  0.18014686  0.68508266  0.10793968    -0.39600
C995        C  0.43109343  0.81408954  0.01457561    -0.11900
C996        C  0.39844017  0.80477337  0.02493190     0.05100
C997        C  0.37002599  0.80143478  0.01180011    -0.07200
C998        C  0.37350833  0.80397043  0.98846342    -0.08000
C999        C  0.40475211  0.80915324  0.97794793    -0.02500
C1000       C  0.43437385  0.81620400  0.99113879     0.04300
N1001       N  0.46669055  0.82203777  0.98091593     0.66800
H1002       H  0.45301065  0.81647558  0.02451545     0.15700
H1003       H  0.35043723  0.79812502  0.97845856     0.15400
N1004       N  0.33644531  0.79225180  0.02174741     0.74500
O1005       O  0.49076230  0.85338426  0.97627631    -0.38900
O1006       O  0.47306770  0.79666710  0.97925367    -0.38900
O1007       O  0.32602625  0.81477913  0.02184173    -0.39600
O1008       O  0.31461478  0.76009480  0.02635812    -0.39600
O1009       O  0.82329275  0.23573286  0.08514905    -0.71400
O1010       O  0.91052242  0.23503206  0.07790020    -0.71600
O1011       O  0.86092149  0.21367191  0.11001634    -0.71500
O1012       O  0.87264493  0.25561431  0.05296326    -0.71500
O1013       O  0.90335110  0.30874480  0.06722749    -0.71500
O1014       O  0.88803539  0.26603404  0.12535721    -0.71500
O1015       O  0.93856105  0.28733315  0.09354595    -0.71400
O1016       O  0.85278291  0.28918172  0.09894171    -0.71600
V1017       V  0.86729846  0.23601772  0.08183923     1.35200
V1018       V  0.89497703  0.28674212  0.09609954     1.35200
C1019       C  0.82355565  0.26344393  0.09243183     0.77800
C1020       C  0.93945568  0.26149569  0.08443945     0.77900
C1021       C  0.87308984  0.23233210  0.12743584     0.77700
C1022       C  0.89051454  0.28891971  0.05019321     0.77700
O1023       O  0.91612696  0.23962879  0.92136742    -0.71400
O1024       O  0.82900063  0.23987749  0.92927555    -0.71600
O1025       O  0.85651238  0.21879084  0.89659597    -0.71500
O1026       O  0.88667015  0.25941948  0.95404031    -0.71500
O1027       O  0.90970739  0.31290154  0.94023969    -0.71500
O1028       O  0.88203669  0.27156244  0.88165407    -0.71500
O1029       O  0.85326237  0.29254305  0.91418153    -0.71400
O1030       O  0.94032392  0.29322213  0.90788758    -0.71600
V1031       V  0.87276766  0.24046181  0.92497234     1.35200
V1032       V  0.89604720  0.29150137  0.91115637     1.35200
C1033       C  0.94355448  0.26704719  0.91393243     0.77800
C1034       C  0.82666831  0.26668918  0.92331560     0.77900
C1035       C  0.86286826  0.23796749  0.87941230     0.77700
C1036       C  0.90117985  0.29261724  0.95714753     0.77700
O1037       O  0.69496151  0.30037571  0.08338551    -0.71400
O1038       O  0.60815093  0.30168295  0.07585595    -0.71600
O1039       O  0.65808619  0.32411797  0.10776375    -0.71500
O1040       O  0.64498003  0.27942893  0.05138116    -0.71500
O1041       O  0.61296973  0.22719789  0.06656274    -0.71500
O1042       O  0.63200169  0.27252093  0.12422062    -0.71500
O1043       O  0.58018247  0.25109751  0.09332541    -0.71400
O1044       O  0.66496883  0.24718805  0.09740696    -0.71600
V1045       V  0.65114846  0.30044304  0.07996520     1.35200
V1046       V  0.62323886  0.25053336  0.09517220     1.35200
C1047       C  0.69445943  0.27277585  0.09103385     0.77800
C1048       C  0.57916865  0.27602062  0.08306801     0.77900
C1049       C  0.64692686  0.30627880  0.12558773     0.77700
C1050       C  0.62545172  0.24615489  0.04913203     0.77700
O1051       O  0.60852310  0.30057063  0.92145889    -0.71400
O1052       O  0.69497583  0.29838373  0.92779333    -0.71600
O1053       O  0.66771947  0.32127579  0.89617588    -0.71500
O1054       O  0.63752787  0.27921771  0.95327609    -0.71500
O1055       O  0.61358877  0.22609275  0.93877483    -0.71500
O1056       O  0.64210117  0.26904805  0.88063644    -0.71500
O1057       O  0.66978247  0.24625247  0.91204065    -0.71400
O1058       O  0.58375513  0.24736028  0.90716524    -0.71600
V1059       V  0.65155434  0.29885453  0.92433532     1.35200
V1060       V  0.62759752  0.24824054  0.90985970     1.35200
C1061       C  0.58097269  0.27355961  0.91383648     0.77800
C1062       C  0.69677921  0.27148344  0.92111481     0.77900
C1063       C  0.66151083  0.30268550  0.87869078     0.77700
C1064       C  0.62196394  0.24589440  0.95596627     0.77700
O1065       O  0.79635801  0.12039120  0.74910367    -0.71400
O1066       O  0.79582875  0.20833658  0.74587498    -0.71600
O1067       O  0.81836195  0.17836066  0.77611386    -0.71500
O1068       O  0.77550061  0.15238607  0.71898174    -0.71500
O1069       O  0.72270279  0.12693820  0.73397820    -0.71500
O1070       O  0.76635422  0.15314156  0.79188586    -0.71500
O1071       O  0.74358293  0.18219589  0.76145835    -0.71400
O1072       O  0.74399634  0.09580314  0.76445598    -0.71600
V1073       V  0.79557091  0.16420412  0.74788662     1.35200
V1074       V  0.74526226  0.13985238  0.76273509     1.35200
C1075       C  0.76943968  0.09269211  0.75676884     0.77800
C1076       C  0.76882727  0.20969126  0.75273517     0.77900
C1077       C  0.79998778  0.17193836  0.79373640     0.77700
C1078       C  0.74217533  0.13680871  0.71661474     0.77700
O1079       O  0.79630492  0.20646254  0.58809021    -0.71400
O1080       O  0.79354199  0.11745218  0.59727422    -0.71600
O1081       O  0.81722890  0.16652582  0.56467299    -0.71500
O1082       O  0.77413853  0.15765622  0.62105831    -0.71500
O1083       O  0.72144376  0.12667929  0.60650986    -0.71500
O1084       O  0.76555607  0.14120758  0.54867346    -0.71500
O1085       O  0.74249445  0.09058092  0.58042650    -0.71400
O1086       O  0.74292455  0.17741116  0.57447777    -0.71600
V1087       V  0.79431821  0.16157946  0.59246801     1.35200
V1088       V  0.74413777  0.13464197  0.57775236     1.35200
C1089       C  0.76940672  0.20682636  0.58005550     0.77800
C1090       C  0.76715786  0.08873760  0.59028017     0.77900
C1091       C  0.79916685  0.15528922  0.54702862     0.77700
C1092       C  0.74086773  0.13966638  0.62366574     0.77700
O1093       O  0.72463815  0.42248581  0.75082381    -0.71400
O1094       O  0.72547202  0.33486203  0.74662474    -0.71600
O1095       O  0.70639503  0.36597749  0.77801122    -0.71500
O1096       O  0.74210233  0.38910649  0.71908741    -0.71500
O1097       O  0.79658885  0.41499776  0.73115174    -0.71500
O1098       O  0.76010253  0.39284896  0.79139065    -0.71500
O1099       O  0.77938353  0.36174066  0.75965347    -0.71400
O1100       O  0.77907609  0.44835125  0.76290284    -0.71600
V1101       V  0.72571428  0.37889505  0.74892397     1.35200
V1102       V  0.77771435  0.40421149  0.76111741     1.35200
C1103       C  0.75226561  0.45057781  0.75728431     0.77800
C1104       C  0.75310016  0.33383101  0.75218288     0.77900
C1105       C  0.72674925  0.37364305  0.79461490     0.77700
C1106       C  0.77494792  0.40367474  0.71488808     0.77700
O1107       O  0.72928478  0.33444223  0.58142245    -0.71400
O1108       O  0.72991018  0.42179768  0.59221717    -0.71600
O1109       O  0.71156360  0.37684328  0.55772537    -0.71500
O1110       O  0.74608528  0.37948476  0.61592394    -0.71500
O1111       O  0.80067713  0.41235936  0.60450564    -0.71500
O1112       O  0.76537861  0.40379175  0.54442444    -0.71500
O1113       O  0.78319073  0.45068639  0.57811060    -0.71400
O1114       O  0.78452641  0.36464273  0.57092765    -0.71600
V1115       V  0.73024978  0.37856604  0.58649053     1.35200
V1116       V  0.78240147  0.40709321  0.57459624     1.35200
C1117       C  0.75757949  0.33482665  0.57540532     0.77800
C1118       C  0.75702636  0.45120999  0.58698279     0.77900
C1119       C  0.73216950  0.39084244  0.54124082     0.77700
C1120       C  0.77877226  0.39754080  0.62047320     0.77700
O1121       O  0.70098709  0.42758307  0.25531631    -0.71400
O1122       O  0.61271158  0.33985782  0.25780953    -0.71600
O1123       O  0.66603212  0.36989347  0.22815847    -0.71500
O1124       O  0.64771518  0.39586263  0.28501489    -0.71500
O1125       O  0.62172729  0.42250166  0.26982827    -0.71500
O1126       O  0.63893005  0.39459715  0.21222221    -0.71500
O1127       O  0.58661303  0.36648048  0.24281315    -0.71400
O1128       O  0.67415896  0.45249584  0.23921779    -0.71600
V1129       V  0.65652484  0.38395088  0.25622630     1.35200
V1130       V  0.63106732  0.40864187  0.24121135     1.35200
C1131       C  0.70223019  0.45539057  0.24741332     0.77800
C1132       C  0.58448729  0.33870150  0.25103062     0.77900
C1133       C  0.65415681  0.37603026  0.21050867     0.77700
C1134       C  0.63106636  0.41266298  0.28724399     0.77700
O1135       O  0.61075390  0.34292851  0.41712551    -0.71400
O1136       O  0.69814394  0.42954045  0.40704057    -0.71600
O1137       O  0.67160746  0.38266756  0.44042687    -0.71500
O1138       O  0.63844184  0.38995681  0.38335632    -0.71500
O1139       O  0.61792230  0.42282898  0.39701749    -0.71500
O1140       O  0.64659457  0.41040849  0.45546455    -0.71500
O1141       O  0.67534538  0.45904382  0.42268806    -0.71400
O1142       O  0.58726771  0.37380529  0.42963836    -0.71600
V1143       V  0.65414294  0.38673487  0.41227876     1.35200
V1144       V  0.63206411  0.41576050  0.42603465     1.35200
C1145       C  0.58372275  0.34393615  0.42432772     0.77800
C1146       C  0.70155004  0.45902236  0.41346645     0.77900
C1147       C  0.66586265  0.39605953  0.45762736     0.77700
C1148       C  0.62390154  0.40860928  0.38022891     0.77700
O1149       O  0.82989757  0.12104830  0.25658337    -0.71400
O1150       O  0.91741221  0.20909677  0.26299999    -0.71600
O1151       O  0.86717111  0.18040246  0.23132848    -0.71500
O1152       O  0.88016426  0.15149871  0.28834401    -0.71500
O1153       O  0.91155589  0.12981098  0.27395989    -0.71500
O1154       O  0.89276515  0.15367468  0.21565789    -0.71500
O1155       O  0.94466126  0.18491767  0.24627730    -0.71400
O1156       O  0.85953039  0.09672473  0.24340749    -0.71600
V1157       V  0.87399947  0.16487578  0.25946687     1.35200
V1158       V  0.90138670  0.14159496  0.24501203     1.35200
C1159       C  0.83023819  0.09346728  0.24960463     0.77800
C1160       C  0.94617971  0.21159243  0.25592894     0.77900
C1161       C  0.87828313  0.17286499  0.21377354     0.77700
C1162       C  0.89977132  0.13798662  0.29108211     0.77700
O1163       O  0.91779415  0.21417807  0.41924497    -0.71400
O1164       O  0.83313040  0.12467582  0.41091556    -0.71600
O1165       O  0.85800849  0.17316064  0.44361587    -0.71500
O1166       O  0.89177293  0.16568744  0.38658735    -0.71500
O1167       O  0.91519354  0.13583948  0.40068081    -0.71500
O1168       O  0.88566701  0.14836155  0.45878021    -0.71500
O1169       O  0.85847834  0.09828939  0.42700760    -0.71400
O1170       O  0.94380509  0.18643690  0.43248849    -0.71600
V1171       V  0.87574699  0.16901044  0.41541928     1.35200
V1172       V  0.90042330  0.14291826  0.42953775     1.35200
C1173       C  0.94584383  0.21534726  0.42639021     0.77800
C1174       C  0.83137102  0.09613990  0.41779351     0.77900
C1175       C  0.86501135  0.16109724  0.46087865     0.77700
C1176       C  0.90827630  0.14882609  0.38375566     0.77700
C1177       C  0.93485054  0.16965681  0.32383440    -0.11900
C1178       C  0.91143015  0.13671287  0.31395323     0.05100
C1179       C  0.89353987  0.10621969  0.32756351    -0.07200
C1180       C  0.89688987  0.10975358  0.35094939    -0.08000
C1181       C  0.91706223  0.14353140  0.36080351    -0.02500
C1182       C  0.93755358  0.17333766  0.34709534     0.04300
N1183       N  0.95834996  0.20811806  0.35659235     0.66800
H1184       H  0.94852386  0.19331559  0.31351510     0.15700
H1185       H  0.88053580  0.08681849  0.36137010     0.15400
N1186       N  0.86885498  0.07243468  0.31815656     0.74500
O1187       O  0.99063791  0.21954908  0.36122698    -0.38900
O1188       O  0.94625797  0.22929413  0.35696134    -0.38900
O1189       O  0.87616541  0.04761516  0.31825202    -0.39600
O1190       O  0.83733986  0.06524296  0.31434389    -0.39600
C1191       C  0.76726677  0.49286770  0.41635716    -0.11900
C1192       C  0.73561685  0.49265644  0.41141132     0.05100
C1193       C  0.73467357  0.02788790  0.40779794    -0.07200
C1194       C  0.76679826  0.06021723  0.40899767    -0.08000
C1195       C  0.79836465  0.06116755  0.41548216    -0.02500
C1196       C  0.79746813  0.02860847  0.42012428     0.04300
N1197       N  0.82848911  0.02770678  0.42713943     0.66800
H1198       H  0.76672083  0.46809239  0.41997818     0.15700
H1199       H  0.76681237  0.08466923  0.40520361     0.15400
N1200       N  0.70523509  0.52609842  0.40108338     0.74500
O1201       O  0.83458146  0.02757824  0.44776486    -0.38900
O1202       O  0.84568216  0.02026289  0.41313156    -0.38900
O1203       O  0.69062692  0.53635591  0.41529506    -0.39600
O1204       O  0.69691864  0.52430534  0.38072662    -0.39600
C1205       C  0.51930039  0.31237461  0.41553221    -0.11900
C1206       C  0.54820360  0.31155196  0.42538192     0.05100
C1207       C  0.54259095  0.27996897  0.43564725    -0.07200
C1208       C  0.01155171  0.24732850  0.43226485    -0.08000
C1209       C  0.98080139  0.24902964  0.42684861    -0.02500
C1210       C  0.98472013  0.28242334  0.42091867     0.04300
N1211       N  0.95485250  0.28588901  0.41454933     0.66800
H1212       H  0.52340735  0.33652908  0.40747263     0.15700
H1213       H  0.00948786  0.22215022  0.43675929     0.15400
N1214       N  0.57106006  0.27851307  0.44661659     0.74500
O1215       O  0.93954800  0.29503419  0.42895237    -0.38900
O1216       O  0.94802307  0.28619806  0.39406894    -0.38900
O1217       O  0.57633501  0.28568017  0.46721093    -0.39600
O1218       O  0.58724268  0.26496467  0.43668545    -0.39600
C1219       C  0.76467007  0.05588181  0.24471607    -0.11900
C1220       C  0.79750096  0.05805192  0.24871025     0.05100
C1221       C  0.79858382  0.02614699  0.25164305    -0.07200
C1222       C  0.76714386  0.99307474  0.25083768    -0.08000
C1223       C  0.73538281  0.49063736  0.24810180    -0.02500
C1224       C  0.73330104  0.02276085  0.24338483     0.04300
N1225       N  0.70241552  0.52349549  0.24346267     0.66800
H1226       H  0.76335825  0.07999673  0.24233079     0.15700
H1227       H  0.76903837  0.46763424  0.25300726     0.15400
N1228       N  0.83124594  0.02676441  0.25614599     0.74500
O1229       O  0.68269195  0.02400947  0.25524319    -0.38900
O1230       O  0.69436074  0.53035622  0.22457468    -0.38900
O1231       O  0.83746781  0.02054962  0.27572403    -0.39600
O1232       O  0.84943707  0.02529600  0.24006250    -0.39600
C1233       C  0.51940363  0.30955791  0.25727695    -0.11900
C1234       C  0.54943441  0.30620437  0.25268850     0.05100
C1235       C  0.54508402  0.27224532  0.24883461    -0.07200
C1236       C  0.01185851  0.24058704  0.25654006    -0.08000
C1237       C  0.98135472  0.24409396  0.25870362    -0.02500
C1238       C  0.98570124  0.27842221  0.26171272     0.04300
N1239       N  0.95595784  0.28369172  0.26527665     0.66800
H1240       H  0.52257280  0.33560622  0.26057469     0.15700
H1241       H  0.00926500  0.21451731  0.25453971     0.15400
N1242       N  0.57457907  0.26787649  0.24271125     0.74500
O1243       O  0.93907043  0.27393916  0.28354564    -0.38900
O1244       O  0.95198836  0.30502142  0.25287742    -0.38900
O1245       O  0.58752826  0.25591547  0.25684519    -0.39600
O1246       O  0.58279568  0.26914747  0.22231811    -0.39600
C1247       C  0.59349145  0.38851719  0.32071210    -0.11900
C1248       C  0.62158082  0.41805223  0.31000402     0.05100
C1249       C  0.64533445  0.44772048  0.32286307    -0.07200
C1250       C  0.64264777  0.44608298  0.34631319    -0.08000
C1251       C  0.61687836  0.41495127  0.35707643    -0.02500
C1252       C  0.59108925  0.38672594  0.34412332     0.04300
N1253       N  0.56433061  0.35476016  0.35452811     0.66800
H1254       H  0.57535616  0.36544334  0.31098333     0.15700
H1255       H  0.66300216  0.46744618  0.35604112     0.15400
N1256       N  0.67467130  0.47793011  0.31255242     0.74500
O1257       O  0.53390188  0.35085399  0.35822226    -0.38900
O1258       O  0.56909711  0.32840354  0.35652358    -0.38900
O1259       O  0.67496357  0.50722222  0.31174637    -0.39600
O1260       O  0.70258361  0.47700529  0.30774013    -0.39600
C1261       C  0.68569446  0.39616147  0.51996498    -0.11900
C1262       C  0.71675111  0.39335089  0.51948104     0.05100
C1263       C  0.73158030  0.39301990  0.49852004    -0.07200
C1264       C  0.71429180  0.39345170  0.47873435    -0.08000
C1265       C  0.68291998  0.39576060  0.47924114    -0.02500
C1266       C  0.66927497  0.39812212  0.50022151     0.04300
N1267       N  0.63859474  0.40218485  0.50186757     0.66800
H1268       H  0.67426794  0.39738120  0.53584013     0.15700
H1269       H  0.72588593  0.39255606  0.46285589     0.15400
N1270       N  0.76380191  0.39170587  0.49695577     0.74500
O1271       O  0.60835065  0.37514502  0.50503961    -0.38900
O1272       O  0.64248292  0.43297013  0.50398992    -0.38900
O1273       O  0.76246961  0.36252099  0.49254054    -0.39600
O1274       O  0.79320691  0.42041462  0.49570946    -0.39600
C1275       C  0.80371323  0.43536565  0.67900375    -0.11900
C1276       C  0.78608937  0.40367540  0.69144686     0.05100
C1277       C  0.77306812  0.37072695  0.68026767    -0.07200
C1278       C  0.77464595  0.36963984  0.65694624    -0.08000
C1279       C  0.78931336  0.40098517  0.64425458    -0.02500
C1280       C  0.80555046  0.43421063  0.65544650     0.04300
N1281       N  0.82038043  0.46674456  0.64308157     0.66800
H1282       H  0.81360402  0.46080592  0.68734144     0.15700
H1283       H  0.76210889  0.34397074  0.64861660     0.15400
N1284       N  0.75625798  0.33784053  0.69235790     0.74500
O1285       O  0.80154206  0.48078867  0.63902386    -0.38900
O1286       O  0.85353773  0.48438864  0.63973701    -0.38900
O1287       O  0.72272566  0.31995869  0.69343534    -0.39600
O1288       O  0.77418623  0.32318435  0.69741022    -0.39600
C1289       C  0.73003911  0.02284857  0.59168690    -0.11900
C1290       C  0.76416361  0.05334720  0.59296785     0.05100
C1291       C  0.79415576  0.04889430  0.59435625    -0.07200
C1292       C  0.78972954  0.01465662  0.59271896    -0.08000
C1293       C  0.75912024  0.48585214  0.59093957    -0.02500
C1294       C  0.72564323  0.98858743  0.59042932     0.04300
N1295       N  0.69380969  0.45957441  0.58902419     0.66800
H1296       H  0.70660091  0.02563269  0.59085897     0.15700
H1297       H  0.81640886  0.51356302  0.59424021     0.15400
N1298       N  0.82937025  0.07872103  0.59630359     0.74500
O1299       O  0.67573505  0.44527918  0.60644141    -0.38900
O1300       O  0.67900282  0.45101388  0.57011792    -0.38900
O1301       O  0.83979023  0.09412675  0.61497240    -0.39600
O1302       O  0.85203501  0.08426826  0.58123393    -0.39600
C1303       C  0.79409751  0.30477000  0.57630299    -0.11900
C1304       C  0.76026117  0.30180642  0.57486168     0.05100
C1305       C  0.72996676  0.26744274  0.57422687    -0.07200
C1306       C  0.73381890  0.23720452  0.57556759    -0.08000
C1307       C  0.76753054  0.24011591  0.57764273    -0.02500
C1308       C  0.79794750  0.27444117  0.57767253     0.04300
N1309       N  0.83294326  0.27904891  0.57861559     0.66800
H1310       H  0.81780979  0.33082163  0.57671473     0.15700
H1311       H  0.71001962  0.21120661  0.57533274     0.15400
N1312       N  0.69503378  0.26263083  0.57197154     0.74500
O1313       O  0.84753057  0.27644314  0.56093839    -0.38900
O1314       O  0.85114161  0.29093417  0.59621567    -0.38900
O1315       O  0.68116661  0.25758029  0.55282002    -0.39600
O1316       O  0.67592949  0.25707668  0.58914838    -0.39600
C1317       C  0.80042061  0.15915321  0.50531904    -0.11900
C1318       C  0.81716422  0.15831890  0.52517002     0.05100
C1319       C  0.85028726  0.15912462  0.52362682    -0.07200
C1320       C  0.86518935  0.15994126  0.50258298    -0.08000
C1321       C  0.84850729  0.16090647  0.48279773    -0.02500
C1322       C  0.81572968  0.16058384  0.48432011     0.04300
N1323       N  0.79664253  0.15989301  0.46469982     0.66800
H1324       H  0.77508696  0.15836448  0.50605573     0.15700
H1325       H  0.89025233  0.16017472  0.50175744     0.15400
N1326       N  0.86882205  0.15790665  0.54308261     0.74500
O1327       O  0.77765634  0.13075415  0.45463324    -0.38900
O1328       O  0.79428079  0.18691697  0.45956420    -0.38900
O1329       O  0.87686977  0.13369035  0.54465510    -0.39600
O1330       O  0.88499667  0.18537807  0.55516266    -0.39600
C1331       C  0.73234416  0.02669272  0.75972344    -0.11900
C1332       C  0.76624595  0.05687502  0.75636806     0.05100
C1333       C  0.79553872  0.05176591  0.75260545    -0.07200
C1334       C  0.79067551  0.01721471  0.75290347    -0.08000
C1335       C  0.75447028  0.48579322  0.75772054    -0.02500
C1336       C  0.72741737  0.99216240  0.75958519     0.05500
N1337       N  0.69067211  0.45952922  0.76693664     0.66800
H1338       H  0.70932297  0.02976853  0.76248109     0.15700
H1339       H  0.81095065  0.51389100  0.75061667     0.15400
N1340       N  0.83037683  0.08121139  0.74853671     0.74500
O1341       O  0.68364028  0.44789601  0.78673391    -0.38900
O1342       O  0.66617424  0.44793262  0.75255266    -0.38900
O1343       O  0.85284544  0.09307820  0.76417771    -0.39600
O1344       O  0.84043131  0.09120879  0.72869711    -0.39600
C1345       C  0.73145485  0.23792959  0.75398930    -0.11900
C1346       C  0.76536279  0.24175342  0.75061122     0.05100
C1347       C  0.79438402  0.27572638  0.74575784    -0.07200
C1348       C  0.78945830  0.30526788  0.74579277    -0.08000
C1349       C  0.75576213  0.30144956  0.74997190    -0.02500
C1350       C  0.72636443  0.26728323  0.75346828     0.04300
N1351       N  0.69159389  0.26203602  0.75776897     0.66800
H1352       H  0.70856512  0.21196065  0.75721346     0.15700
H1353       H  0.81220394  0.33141050  0.74272727     0.15400
N1354       N  0.82912160  0.28095882  0.74144291     0.74500
O1355       O  0.67241803  0.26075503  0.74156221    -0.38900
O1356       O  0.67746096  0.25098693  0.77673097    -0.38900
O1357       O  0.83997606  0.28377009  0.72151819    -0.39600
O1358       O  0.85090145  0.28901514  0.75732954    -0.39600
C1359       C  0.71755708  0.10169480  0.68163825    -0.11900
C1360       C  0.72782087  0.13309846  0.69382319     0.05100
C1361       C  0.73366626  0.16403719  0.68237875    -0.07200
C1362       C  0.73332834  0.16441180  0.65896994    -0.08000
C1363       C  0.72664853  0.13411750  0.64665414    -0.02500
C1364       C  0.71666577  0.10194414  0.65809766     0.04300
N1365       N  0.71003063  0.07062215  0.64608283     0.66800
H1366       H  0.71350514  0.07793338  0.69021905     0.15700
H1367       H  0.74130295  0.18931974  0.65038536     0.15400
N1368       N  0.74363021  0.19637735  0.69428306     0.74500
O1369       O  0.73538901  0.06496710  0.64202781    -0.38900
O1370       O  0.67839474  0.04587952  0.64321268    -0.38900
O1371       O  0.77571794  0.22104453  0.69429001    -0.39600
O1372       O  0.71978278  0.20263031  0.70130726    -0.39600
C1373       C  0.70090882  0.35800105  0.85647903    -0.11900
C1374       C  0.67795817  0.32056004  0.85691800     0.05100
C1375       C  0.67244180  0.30141277  0.83675884    -0.07200
C1376       C  0.68828836  0.31962381  0.81679849    -0.08000
C1377       C  0.71108733  0.35681082  0.81647512    -0.02500
C1378       C  0.71758908  0.37603185  0.83653614     0.04300
N1379       N  0.73962602  0.41397644  0.83679563     0.66800
H1380       H  0.70589369  0.37340015  0.87153587     0.15700
H1381       H  0.68354163  0.30472052  0.80173692     0.15400
N1382       N  0.65186225  0.26333828  0.83618161     0.74500
O1383       O  0.72729303  0.43327874  0.83007641    -0.38900
O1384       O  0.76918562  0.42814084  0.84674900    -0.38900
O1385       O  0.62216336  0.24827873  0.82638686    -0.39600
O1386       O  0.66624347  0.24523294  0.84151947    -0.39600
C1387       C  0.64605838  0.37047893  0.16904238    -0.11900
C1388       C  0.65607846  0.36005882  0.18865424     0.05100
C1389       C  0.66429661  0.33211795  0.18716317    -0.07200
C1390       C  0.66068420  0.31447360  0.16666278    -0.08000
C1391       C  0.65044651  0.32496301  0.14718972    -0.02500
C1392       C  0.64361034  0.35363262  0.14851289     0.04300
N1393       N  0.63141242  0.36426283  0.12945421     0.66800
H1394       H  0.63939465  0.39148047  0.16963621     0.15700
H1395       H  0.66653598  0.29291829  0.16589229     0.15400
N1396       N  0.67622920  0.32110636  0.20622404     0.74500
O1397       O  0.59896946  0.35533773  0.12820748    -0.38900
O1398       O  0.65370327  0.38836642  0.11672064    -0.38900
O1399       O  0.65635208  0.29085254  0.21478900    -0.39600
O1400       O  0.70871088  0.33818939  0.21151180    -0.39600
C1401       C  0.64376011  0.22981767  0.01393285    -0.11900
C1402       C  0.61701683  0.23134528  0.02627545     0.05100
C1403       C  0.58772149  0.22952328  0.01485890    -0.07200
C1404       C  0.58749772  0.23004379  0.99135458    -0.08000
C1405       C  0.61596944  0.23192477  0.97902421    -0.02500
C1406       C  0.64344988  0.23008246  0.99045655     0.04300
N1407       N  0.67347940  0.23294139  0.97861959     0.66800
H1408       H  0.66675885  0.23202420  0.02248459     0.15700
H1409       H  0.56657183  0.23203676  0.98281564     0.15400
N1410       N  0.56015885  0.23143336  0.02689241     0.74500
O1411       O  0.69885575  0.26344035  0.97360014    -0.38900
O1412       O  0.67848803  0.20660555  0.97827797    -0.38900
O1413       O  0.55953637  0.26028917  0.02728695    -0.39600
O1414       O  0.53343312  0.20309628  0.03370155    -0.39600
C1415       C  0.54470720  0.30338741  0.90981318    -0.11900
C1416       C  0.54604178  0.27200176  0.91298655     0.05100
C1417       C  0.51376181  0.23922705  0.91495961    -0.07200
C1418       C  0.98054025  0.23764174  0.91590941    -0.08000
C1419       C  0.97877911  0.26892210  0.91296095    -0.02500
C1420       C  0.01098897  0.30169847  0.91020292     0.04300
N1421       N  0.01109092  0.33450566  0.90717444     0.66800
H1422       H  0.56918574  0.32868939  0.90812659     0.15700
H1423       H  0.95633987  0.21228057  0.91822113     0.15400
N1424       N  0.51367546  0.20662138  0.91917777     0.74500
O1425       O  0.01368915  0.35342522  0.92395540    -0.38900
O1426       O  0.01393146  0.34700364  0.88773553    -0.38900
O1427       O  0.52539839  0.20218072  0.93747432    -0.39600
O1428       O  0.50035737  0.18158296  0.90506687    -0.39600
C1429       C  0.76170347  0.30055953  0.92819457    -0.11900
C1430       C  0.72948682  0.26932515  0.92372725     0.05100
C1431       C  0.72923290  0.23654661  0.92167657    -0.07200
C1432       C  0.76103971  0.23595505  0.92322656    -0.08000
C1433       C  0.79341520  0.26754404  0.92604697    -0.02500
C1434       C  0.79356714  0.29993481  0.92933186     0.04300
N1435       N  0.82575166  0.33223432  0.93431867     0.66800
H1436       H  0.76235257  0.32576804  0.93040382     0.15700
H1437       H  0.76054798  0.21080915  0.92112281     0.15400
N1438       N  0.69717778  0.20370594  0.91742725     0.74500
O1439       O  0.83931713  0.35676853  0.91990174    -0.38900
O1440       O  0.83686687  0.33865073  0.95421554    -0.38900
O1441       O  0.68877612  0.19308014  0.89751940    -0.39600
O1442       O  0.68160056  0.18227572  0.93331528    -0.39600
C1443       C  0.79680479  0.17704869  0.83540157    -0.11900
C1444       C  0.81736444  0.18767640  0.81572442     0.05100
C1445       C  0.85346077  0.21534838  0.81729993    -0.07200
C1446       C  0.86770249  0.23189333  0.83798557    -0.08000
C1447       C  0.84706133  0.22098882  0.85754009    -0.02500
C1448       C  0.81125777  0.19322411  0.85607971     0.04300
N1449       N  0.78837358  0.18282433  0.87520724     0.66800
H1450       H  0.76907086  0.15651517  0.83473865     0.15700
H1451       H  0.89520049  0.25299812  0.83880182     0.15400
N1452       N  0.87607057  0.22752063  0.79804101     0.74500
O1453       O  0.77067852  0.19820028  0.87912145    -0.38900
O1454       O  0.78021887  0.15398895  0.88509465    -0.38900
O1455       O  0.88269398  0.25636935  0.78876248    -0.39600
O1456       O  0.89427119  0.21310897  0.79290000    -0.39600
C1457       C  0.87745165  0.23534154  0.16912070    -0.11900
C1458       C  0.87114180  0.21519751  0.14950504     0.05100
C1459       C  0.86568589  0.18001812  0.15138024    -0.07200
C1460       C  0.86880988  0.16699517  0.17231824    -0.08000
C1461       C  0.87514074  0.18728667  0.19183316    -0.02500
C1462       C  0.87872507  0.22156247  0.19009897     0.04300
N1463       N  0.88554011  0.24366289  0.20936097     0.66800
H1464       H  0.88151926  0.26210899  0.16823324     0.15700
H1465       H  0.86526109  0.14044281  0.17340818     0.15400
N1466       N  0.85670876  0.15689478  0.13237446     0.74500
O1467       O  0.91624208  0.27013777  0.21216733    -0.38900
O1468       O  0.85970488  0.24167482  0.22038490    -0.38900
O1469       O  0.87535927  0.14279412  0.12769176    -0.39600
O1470       O  0.82607077  0.14396832  0.12394564    -0.39600
C1471       C  0.00392133  0.29581842  0.07599360    -0.11900
C1472       C  0.97393352  0.26308241  0.08174357     0.05100
C1473       C  0.97819522  0.23379619  0.08689452    -0.07200
C1474       C  0.51379921  0.23944818  0.07972632    -0.08000
C1475       C  0.54429870  0.27362090  0.07942967    -0.02500
C1476       C  0.54009168  0.30378741  0.07703768     0.04300
N1477       N  0.56998290  0.33919375  0.07525293     0.66800
H1478       H  0.00084231  0.31848163  0.07185893     0.15700
H1479       H  0.51644322  0.21592124  0.08100209     0.15400
N1480       N  0.94883976  0.20077324  0.09426590     0.74500
O1481       O  0.59024782  0.34741273  0.05841591    -0.38900
O1482       O  0.57094255  0.36384144  0.08712969    -0.38900
O1483       O  0.93087142  0.17679558  0.08011727    -0.39600
O1484       O  0.94611458  0.19283105  0.11475651    -0.39600
C1485       C  0.76070439  0.30119564  0.09101673    -0.11900
C1486       C  0.72731069  0.27006530  0.09222472     0.05100
C1487       C  0.72597409  0.23674583  0.09403635    -0.07200
C1488       C  0.75749083  0.23516367  0.09410298    -0.08000
C1489       C  0.79080832  0.26626438  0.09281400    -0.02500
C1490       C  0.79223433  0.29962829  0.09141190     0.04300
N1491       N  0.82542374  0.33217614  0.08946977     0.66800
H1492       H  0.76244111  0.32695729  0.08961318     0.15700
H1493       H  0.75582884  0.20940541  0.09524807     0.15400
N1494       N  0.69284416  0.20403865  0.09525099     0.74500
O1495       O  0.83962991  0.34262924  0.07046509    -0.38900
O1496       O  0.83745493  0.35304375  0.10600044    -0.38900
O1497       O  0.67954798  0.18602511  0.07769751    -0.39600
O1498       O  0.68043045  0.19019953  0.11409279    -0.39600
C1499       C  0.92996445  0.31464873  0.01713545    -0.11900
C1500       C  0.89656777  0.30292065  0.02720175     0.05100
C1501       C  0.86726716  0.29594319  0.01368929    -0.07200
C1502       C  0.87089013  0.29753460  0.99039356    -0.08000
C1503       C  0.90326331  0.30550072  0.98022905    -0.02500
C1504       C  0.93345395  0.31587713  0.99367962     0.04300
N1505       N  0.96681801  0.32430505  0.98380991     0.66800
H1506       H  0.95254242  0.31963302  0.02737003     0.15700
H1507       H  0.84740537  0.28906862  0.98020489     0.15400
N1508       N  0.83284910  0.28382813  0.02332828     0.74500
O1509       O  0.98821903  0.35593846  0.97787385    -0.38900
O1510       O  0.97690529  0.30151987  0.98387612    -0.38900
O1511       O  0.82083867  0.30499659  0.02481880    -0.39600
O1512       O  0.81217185  0.25089649  0.02642177    -0.39600
O1513       O  0.82215428  0.73140768  0.08470144    -0.71400
O1514       O  0.90939444  0.73093021  0.07653832    -0.71600
O1515       O  0.86032865  0.70910562  0.10916365    -0.71500
O1516       O  0.87120266  0.75169084  0.05223435    -0.71500
O1517       O  0.90240144  0.80459926  0.06671997    -0.71500
O1518       O  0.88713759  0.76137934  0.12462987    -0.71500
O1519       O  0.93743576  0.78274958  0.09272524    -0.71400
O1520       O  0.85186713  0.78485753  0.09843848    -0.71600
V1521       V  0.86617498  0.73173758  0.08102391     1.35200
V1522       V  0.89397254  0.78229364  0.09546794     1.35200
C1523       C  0.82256827  0.75924143  0.09191360     0.77800
C1524       C  0.93839124  0.75731157  0.08306311     0.77900
C1525       C  0.87260451  0.72770714  0.12662775     0.77700
C1526       C  0.88947373  0.78501841  0.04960636     0.77700
O1527       O  0.91161353  0.73489987  0.92130304    -0.71400
O1528       O  0.82513330  0.73667649  0.92951801    -0.71600
O1529       O  0.85155328  0.71410583  0.89701650    -0.71500
O1530       O  0.88335139  0.75608608  0.95396100    -0.71500
O1531       O  0.90745959  0.80929105  0.93960837    -0.71500
O1532       O  0.87636477  0.76652923  0.88169915    -0.71500
O1533       O  0.85007936  0.78938779  0.91445628    -0.71400
O1534       O  0.93571992  0.78780099  0.90678078    -0.71600
V1535       V  0.86858856  0.73647022  0.92512065     1.35200
V1536       V  0.89212015  0.78718666  0.91082624     1.35200
C1537       C  0.93886526  0.76171136  0.91312654     0.77800
C1538       C  0.82323438  0.76373192  0.92349115     0.77900
C1539       C  0.85703111  0.73288658  0.87974527     0.77700
C1540       C  0.89899627  0.78941765  0.95671494     0.77700
O1541       O  0.69520981  0.79850846  0.08331400    -0.71400
O1542       O  0.60853007  0.80041364  0.07602827    -0.71600
O1543       O  0.65853563  0.82241368  0.10788193    -0.71500
O1544       O  0.64542925  0.77819525  0.05139170    -0.71500
O1545       O  0.61300375  0.72584610  0.06632547    -0.71500
O1546       O  0.63229804  0.77075994  0.12422451    -0.71500
O1547       O  0.58050919  0.74978455  0.09342415    -0.71400
O1548       O  0.66491939  0.74517338  0.09709106    -0.71600
V1549       V  0.65150777  0.79892625  0.08002363     1.35200
V1550       V  0.62339394  0.74892221  0.09506746     1.35200
C1551       C  0.69445236  0.77060844  0.09065095     0.77800
C1552       C  0.57952020  0.77483255  0.08332347     0.77900
C1553       C  0.64723089  0.80453726  0.12567610     0.77700
C1554       C  0.62593448  0.74496285  0.04898291     0.77700
O1555       O  0.60730476  0.80156308  0.92125780    -0.71400
O1556       O  0.69295206  0.79772183  0.92733527    -0.71600
O1557       O  0.66612922  0.82131624  0.89587862    -0.71500
O1558       O  0.63597365  0.77939316  0.95300115    -0.71500
O1559       O  0.61250984  0.72629045  0.93852089    -0.71500
O1560       O  0.63826453  0.76921147  0.88014423    -0.71500
O1561       O  0.66745364  0.74627856  0.91069869    -0.71400
O1562       O  0.58128801  0.74766320  0.90790402    -0.71600
V1563       V  0.64992395  0.79899652  0.92402650     1.35200
V1564       V  0.62517838  0.74839424  0.90951639     1.35200
C1565       C  0.57928848  0.77447462  0.91420066     0.77800
C1566       C  0.69448580  0.77090735  0.92016910     0.77900
C1567       C  0.65839741  0.80277471  0.87828048     0.77700
C1568       C  0.62111406  0.74610596  0.95572364     0.77700
O1569       O  0.79062022  0.61778350  0.75025375    -0.71400
O1570       O  0.78872941  0.70476008  0.74561178    -0.71600
O1571       O  0.81092144  0.67585363  0.77660721    -0.71500
O1572       O  0.77012386  0.64853576  0.71915430    -0.71500
O1573       O  0.71681329  0.62358864  0.73336688    -0.71500
O1574       O  0.75857083  0.64940893  0.79198266    -0.71500
O1575       O  0.73642109  0.67859617  0.76108592    -0.71400
O1576       O  0.73740445  0.59235765  0.76439575    -0.71600
V1577       V  0.78909779  0.66106596  0.74825568     1.35200
V1578       V  0.73834944  0.63631192  0.76249637     1.35200
C1579       C  0.76364903  0.58984445  0.75759795     0.77800
C1580       C  0.76174892  0.70615610  0.75245298     0.77900
C1581       C  0.79212131  0.66885693  0.79404924     0.77700
C1582       C  0.73693494  0.63296388  0.71627265     0.77700
O1583       O  0.79651034  0.70668090  0.58765156    -0.71400
O1584       O  0.79578172  0.61865984  0.59651119    -0.71600
O1585       O  0.81866553  0.66775175  0.56384407    -0.71500
O1586       O  0.77508726  0.65754494  0.62047028    -0.71500
O1587       O  0.72262572  0.62611946  0.60569915    -0.71500
O1588       O  0.76695650  0.64155116  0.54787041    -0.71500
O1589       O  0.74475318  0.59102968  0.57968144    -0.71400
O1590       O  0.74331862  0.67699254  0.57383962    -0.71600
V1591       V  0.79555727  0.66226164  0.59177561     1.35200
V1592       V  0.74547283  0.63465085  0.57698637     1.35200
C1593       C  0.76928414  0.70655577  0.57976806     0.77800
C1594       C  0.76959380  0.58969089  0.58968456     0.77900
C1595       C  0.80059154  0.65594833  0.54619695     0.77700
C1596       C  0.74181274  0.63885043  0.62296757     0.77700
O1597       O  0.72565501  0.92387835  0.74945648    -0.71400
O1598       O  0.72304853  0.83446891  0.74690718    -0.71600
O1599       O  0.70463078  0.86748670  0.77729205    -0.71500
O1600       O  0.74249887  0.88882618  0.71871551    -0.71500
O1601       O  0.79650069  0.91444683  0.73163265    -0.71500
O1602       O  0.75777566  0.89159221  0.79128819    -0.71500
O1603       O  0.77705510  0.86031856  0.75984441    -0.71400
O1604       O  0.77908942  0.94808349  0.76309061    -0.71600
V1605       V  0.72501525  0.87938895  0.74838526     1.35200
V1606       V  0.77653514  0.90334677  0.76129468     1.35200
C1607       C  0.75335543  0.95142071  0.75642925     0.77800
C1608       C  0.75017173  0.83266704  0.75269859     0.77900
C1609       C  0.72423138  0.87367979  0.79417809     0.77700
C1610       C  0.77551274  0.90374173  0.71503617     0.77700
O1611       O  0.72626305  0.83264419  0.58319523    -0.71400
O1612       O  0.72647783  0.92031730  0.59244679    -0.71600
O1613       O  0.70719110  0.87361899  0.55881727    -0.71500
O1614       O  0.74395954  0.87958606  0.61692742    -0.71500
O1615       O  0.79806717  0.91165787  0.60446145    -0.71500
O1616       O  0.76062189  0.90070817  0.54494260    -0.71500
O1617       O  0.77943387  0.94875196  0.57783284    -0.71400
O1618       O  0.78094336  0.86277300  0.57159411    -0.71600
V1619       V  0.72697485  0.87691177  0.58751170     1.35200
V1620       V  0.77868744  0.90515353  0.57484659     1.35200
C1621       C  0.75442175  0.83305742  0.57675823     0.77800
C1622       C  0.75343118  0.94955837  0.58670016     0.77900
C1623       C  0.72731152  0.88740482  0.54208085     0.77700
C1624       C  0.77684615  0.89793473  0.62085831     0.77700
O1625       O  0.70080371  0.92776483  0.25452700    -0.71400
O1626       O  0.61303347  0.83954899  0.25849402    -0.71600
O1627       O  0.66555739  0.86887866  0.22826824    -0.71500
O1628       O  0.64837516  0.89667831  0.28489779    -0.71500
O1629       O  0.62123500  0.92197928  0.26950005    -0.71500
O1630       O  0.63793724  0.89282438  0.21207556    -0.71500
O1631       O  0.58623842  0.86516275  0.24308377    -0.71400
O1632       O  0.67299967  0.95158444  0.23836578    -0.71600
V1633       V  0.65659201  0.88384640  0.25619200     1.35200
V1634       V  0.63032700  0.90752742  0.24095936     1.35200
C1635       C  0.70145665  0.95514935  0.24634050     0.77800
C1636       C  0.58455622  0.83783488  0.25169274     0.77900
C1637       C  0.65335744  0.87440578  0.21055009     0.77700
C1638       C  0.63129012  0.91306230  0.28701615     0.77700
O1639       O  0.61139671  0.84472049  0.41668681    -0.71400
O1640       O  0.69778952  0.93261399  0.40808490    -0.71600
O1641       O  0.67085595  0.88452401  0.44086026    -0.71500
O1642       O  0.63943106  0.89273026  0.38349452    -0.71500
O1643       O  0.61696178  0.92395064  0.39704557    -0.71500
O1644       O  0.64456054  0.91102279  0.45589385    -0.71500
O1645       O  0.67339535  0.96082997  0.42346669    -0.71400
O1646       O  0.58648481  0.87418129  0.42933931    -0.71600
V1647       V  0.65426692  0.88912855  0.41257464     1.35200
V1648       V  0.63068605  0.91680811  0.42626006     1.35200
C1649       C  0.58388736  0.84477115  0.42388364     0.77800
C1650       C  0.70018800  0.96166035  0.41452211     0.77900
C1651       C  0.66388269  0.89672231  0.45815140     0.77700
C1652       C  0.62410705  0.91059565  0.38025278     0.77700
O1653       O  0.83349500  0.62009291  0.25722073    -0.71400
O1654       O  0.92198969  0.70734797  0.26155288    -0.71600
O1655       O  0.87032729  0.67804434  0.23081335    -0.71500
O1656       O  0.88523540  0.65113781  0.28804495    -0.71500
O1657       O  0.91439037  0.62709391  0.27353191    -0.71500
O1658       O  0.89536573  0.65080395  0.21513451    -0.71500
O1659       O  0.94817444  0.68164711  0.24536753    -0.71400
O1660       O  0.86157928  0.59456552  0.24340246    -0.71600
V1661       V  0.87811185  0.66350567  0.25906063     1.35200
V1662       V  0.90417970  0.63888571  0.24455228     1.35200
C1663       C  0.83284812  0.59207831  0.25016218     0.77800
C1664       C  0.95036104  0.70900096  0.25446486     0.77900
C1665       C  0.88087360  0.66999657  0.21320046     0.77700
C1666       C  0.90371307  0.63635538  0.29072132     0.77700
O1667       O  0.91942886  0.71098670  0.41823935    -0.71400
O1668       O  0.83519305  0.62128978  0.41004435    -0.71600
O1669       O  0.85938655  0.67031901  0.44254830    -0.71500
O1670       O  0.89402881  0.66196181  0.38590888    -0.71500
O1671       O  0.91768754  0.63277842  0.40065136    -0.71500
O1672       O  0.88671704  0.64568257  0.45832182    -0.71500
O1673       O  0.86036550  0.59506910  0.42657623    -0.71400
O1674       O  0.94544450  0.68380186  0.43231364    -0.71600
V1675       V  0.87757088  0.66571167  0.41454853     1.35200
V1676       V  0.90218076  0.64000209  0.42927370     1.35200
C1677       C  0.94746839  0.71249267  0.42568508     0.77800
C1678       C  0.83343943  0.59279781  0.41698560     0.77900
C1679       C  0.86616979  0.65863262  0.46008906     0.77700
C1680       C  0.91081206  0.64530017  0.38346278     0.77700
C1681       C  0.93962019  0.66600789  0.32382793    -0.11900
C1682       C  0.91471247  0.63392031  0.31363520     0.05100
C1683       C  0.89501639  0.60344028  0.32702167    -0.07200
C1684       C  0.89799052  0.60637975  0.35044541    -0.08000
C1685       C  0.91979817  0.63956663  0.36061837    -0.02500
C1686       C  0.94220704  0.66905974  0.34716012     0.04300
N1687       N  0.96512765  0.70313249  0.35698259     0.66800
H1688       H  0.95478930  0.68966439  0.31371067     0.15700
H1689       H  0.88026261  0.58367932  0.36064683     0.15400
N1690       N  0.86910155  0.57043135  0.31732176     0.74500
O1691       O  0.99709188  0.71225844  0.36108646    -0.38900
O1692       O  0.95535456  0.72612854  0.35793986    -0.38900
O1693       O  0.87419592  0.54414830  0.31767143    -0.39600
O1694       O  0.83847742  0.56544193  0.31297037    -0.39600
C1695       C  0.76546522  0.99631289  0.41846850    -0.11900
C1696       C  0.73387333  0.99564886  0.41280926     0.05100
C1697       C  0.73667818  0.52519345  0.40702688    -0.07200
C1698       C  0.76893169  0.55730573  0.40832348    -0.08000
C1699       C  0.80048525  0.55785570  0.41430055    -0.02500
C1700       C  0.79950663  0.52504766  0.41808255     0.04300
N1701       N  0.83069594  0.52379024  0.42421701     0.66800
H1702       H  0.76504596  0.97176642  0.42264813     0.15700
H1703       H  0.76900158  0.58195603  0.40513849     0.15400
N1704       N  0.70323428  0.02821243  0.40106264     0.74500
O1705       O  0.83712780  0.52222632  0.44463396    -0.38900
O1706       O  0.84766798  0.51735550  0.40947166    -0.38900
O1707       O  0.68849050  0.03952289  0.41444397    -0.39600
O1708       O  0.69509616  0.02484267  0.38060862    -0.39600
C1709       C  0.51862445  0.81294483  0.41815918    -0.11900
C1710       C  0.54894796  0.81177446  0.42503084     0.05100
C1711       C  0.54520910  0.77929250  0.43251823    -0.07200
C1712       C  0.01293870  0.74566461  0.43306265    -0.08000
C1713       C  0.98236289  0.74633830  0.42577986    -0.02500
C1714       C  0.98645798  0.77878917  0.41749380     0.04300
N1715       N  0.95686850  0.78120900  0.40918100     0.66800
H1716       H  0.52121520  0.83773485  0.41217453     0.15700
H1717       H  0.01073125  0.72125282  0.43943713     0.15400
N1718       N  0.57523256  0.77723058  0.44035180     0.74500
O1719       O  0.94052158  0.79141527  0.42203265    -0.38900
O1720       O  0.95152943  0.77981758  0.38836626    -0.38900
O1721       O  0.58255682  0.78093891  0.46094563    -0.39600
O1722       O  0.59075448  0.76616868  0.42743074    -0.39600
C1723       C  0.76685935  0.55579487  0.24706614    -0.11900
C1724       C  0.79956890  0.55707665  0.24975785     0.05100
C1725       C  0.79996916  0.52469632  0.25188507    -0.07200
C1726       C  0.76807836  0.49203761  0.25125014    -0.08000
C1727       C  0.73427221  0.99076430  0.24660584    -0.02500
C1728       C  0.73497827  0.52308801  0.24606535     0.04300
N1729       N  0.70066872  0.02232220  0.23910349     0.66800
H1730       H  0.76601049  0.58028172  0.24549110     0.15700
H1731       H  0.76859419  0.96907556  0.25341488     0.15400
N1732       N  0.83242232  0.52438429  0.25533668     0.74500
O1733       O  0.68507219  0.52316721  0.26056333    -0.38900
O1734       O  0.69314288  0.02648886  0.21936899    -0.38900
O1735       O  0.83942814  0.51761208  0.27455615    -0.39600
O1736       O  0.84947119  0.52269180  0.23865393    -0.39600
C1737       C  0.51960480  0.80863051  0.25814443    -0.11900
C1738       C  0.54965846  0.80526281  0.25371048     0.05100
C1739       C  0.54532974  0.77132337  0.24985747    -0.07200
C1740       C  0.01622045  0.73798588  0.25443613    -0.08000
C1741       C  0.98568765  0.74148368  0.25658089    -0.02500
C1742       C  0.98998934  0.77585537  0.25917896     0.04300
N1743       N  0.96029905  0.78125193  0.26261133     0.66800
H1744       H  0.52274924  0.83471842  0.26124615     0.15700
H1745       H  0.01362830  0.71187218  0.25278525     0.15400
N1746       N  0.57471753  0.76703954  0.24334663     0.74500
O1747       O  0.94382497  0.77234447  0.28104699    -0.38900
O1748       O  0.95628741  0.80226661  0.24993398    -0.38900
O1749       O  0.58975750  0.75772234  0.25770133    -0.39600
O1750       O  0.58045460  0.76512765  0.22281050    -0.39600
C1751       C  0.59364225  0.89005925  0.32067204    -0.11900
C1752       C  0.62214414  0.91902977  0.30979625     0.05100
C1753       C  0.64649745  0.94853724  0.32254756    -0.07200
C1754       C  0.64382266  0.94733759  0.34600925    -0.08000
C1755       C  0.61738191  0.91683009  0.35696954    -0.02500
C1756       C  0.59121987  0.88869448  0.34411715     0.04300
N1757       N  0.56418416  0.85704646  0.35467103     0.66800
H1758       H  0.57514276  0.86699924  0.31106968     0.15700
H1759       H  0.66457803  0.96850717  0.35562374     0.15400
N1760       N  0.67633830  0.97808856  0.31211553     0.74500
O1761       O  0.53378325  0.85339414  0.35804902    -0.38900
O1762       O  0.56881274  0.83069813  0.35727522    -0.38900
O1763       O  0.67666531  0.00725485  0.30991491    -0.39600
O1764       O  0.70447240  0.97692531  0.30858509    -0.39600
C1765       C  0.67928663  0.89018186  0.52062938    -0.11900
C1766       C  0.71157744  0.88960636  0.52033532     0.05100
C1767       C  0.72817854  0.89241763  0.49951998    -0.07200
C1768       C  0.71203008  0.89457655  0.47968614    -0.08000
C1769       C  0.67965958  0.89494077  0.47995913    -0.02500
C1770       C  0.66357799  0.89323660  0.50081200     0.04300
N1771       N  0.63085520  0.89361902  0.50219244     0.66800
H1772       H  0.66624865  0.88865759  0.53639219     0.15700
H1773       H  0.72519273  0.89632576  0.46393293     0.15400
N1774       N  0.76105703  0.89236640  0.49810586     0.74500
O1775       O  0.60168069  0.86466347  0.50109562    -0.38900
O1776       O  0.63108884  0.92169910  0.50827414    -0.38900
O1777       O  0.76079306  0.86354318  0.49423266    -0.39600
O1778       O  0.78992875  0.92158449  0.49667081    -0.39600
C1779       C  0.79684386  0.93683218  0.67906877    -0.11900
C1780       C  0.78779137  0.90614609  0.69166949     0.05100
C1781       C  0.78213574  0.87494824  0.68050859    -0.07200
C1782       C  0.78254433  0.87389333  0.65707051    -0.08000
C1783       C  0.78871755  0.90363566  0.64439483    -0.02500
C1784       C  0.79739711  0.93580067  0.65553031     0.04300
N1785       N  0.80226164  0.96619038  0.64323317     0.66800
H1786       H  0.80045123  0.96067696  0.68738441     0.15700
H1787       H  0.77538884  0.84893968  0.64875049     0.15400
N1788       N  0.77317437  0.84318464  0.69271940     0.74500
O1789       O  0.77576564  0.97003322  0.63939981    -0.38900
O1790       O  0.83326214  0.99217948  0.64030916    -0.38900
O1791       O  0.74087363  0.82063640  0.69626671    -0.39600
O1792       O  0.79646864  0.83414732  0.69531711    -0.39600
C1793       C  0.73292558  0.52389539  0.59164470    -0.11900
C1794       C  0.76691003  0.55454191  0.59286859     0.05100
C1795       C  0.79699620  0.55038265  0.59502882    -0.07200
C1796       C  0.79291567  0.51626365  0.59348476    -0.08000
C1797       C  0.75578932  0.98440907  0.59029441    -0.02500
C1798       C  0.72878988  0.48973758  0.59099743     0.04300
N1799       N  0.69067512  0.95872445  0.58758926     0.66800
H1800       H  0.70936299  0.52643749  0.59061738     0.15700
H1801       H  0.81312785  0.01176606  0.59318787     0.15400
N1802       N  0.83186453  0.58030783  0.59819147     0.74500
O1803       O  0.67029764  0.94585021  0.60430072    -0.38900
O1804       O  0.67844324  0.94872240  0.56814018    -0.38900
O1805       O  0.84024821  0.59523013  0.61711542    -0.39600
O1806       O  0.85612139  0.58625001  0.58422735    -0.39600
C1807       C  0.79174511  0.80397893  0.57803585    -0.11900
C1808       C  0.75765526  0.80033531  0.57632332     0.05100
C1809       C  0.72784977  0.76571787  0.57510461    -0.07200
C1810       C  0.73247439  0.73585843  0.57581370    -0.08000
C1811       C  0.76648052  0.73944825  0.57802473    -0.02500
C1812       C  0.79635112  0.77409158  0.57899704     0.04300
N1813       N  0.83159302  0.77952249  0.58069245     0.66800
H1814       H  0.81508704  0.83025046  0.57903258     0.15700
H1815       H  0.70905983  0.70961870  0.57500298     0.15400
N1816       N  0.69269391  0.76029927  0.57281718     0.74500
O1817       O  0.84864771  0.78113523  0.56314870    -0.38900
O1818       O  0.84751305  0.78817880  0.59924764    -0.38900
O1819       O  0.67887841  0.75519049  0.55364682    -0.39600
O1820       O  0.67342903  0.75424807  0.58997054    -0.39600
C1821       C  0.80257397  0.66012437  0.50433312    -0.11900
C1822       C  0.81853291  0.65834682  0.52431828     0.05100
C1823       C  0.85070136  0.65727966  0.52291281    -0.07200
C1824       C  0.86552758  0.65732072  0.50193731    -0.08000
C1825       C  0.84972022  0.65931114  0.48198740    -0.02500
C1826       C  0.81786579  0.66088542  0.48337825     0.04300
N1827       N  0.79975488  0.66174691  0.46366594     0.66800
H1828       H  0.77792622  0.66073358  0.50493785     0.15700
H1829       H  0.88982427  0.65604357  0.50131081     0.15400
N1830       N  0.86809371  0.65457737  0.54249038     0.74500
O1831       O  0.77829101  0.63294671  0.45403894    -0.38900
O1832       O  0.80084473  0.69037396  0.45803307    -0.38900
O1833       O  0.87304918  0.62833911  0.54448425    -0.39600
O1834       O  0.88609697  0.68193285  0.55438137    -0.39600
C1835       C  0.72836276  0.52378155  0.76189540    -0.11900
C1836       C  0.76158535  0.55452303  0.75781589     0.05100
C1837       C  0.79146178  0.55047517  0.75374518    -0.07200
C1838       C  0.78771086  0.51640860  0.75388688    -0.08000
C1839       C  0.75680435  0.98719559  0.75633290    -0.02500
C1840       C  0.72461687  0.48969289  0.76184503     0.05500
N1841       N  0.69264201  0.96258766  0.76364809     0.66800
H1842       H  0.70500303  0.52607009  0.76516028     0.15700
H1843       H  0.81351064  0.01383344  0.75008855     0.15400
N1844       N  0.82583385  0.58054512  0.74949039     0.74500
O1845       O  0.68341888  0.95097918  0.78331844    -0.38900
O1846       O  0.66961016  0.95171365  0.74833522    -0.38900
O1847       O  0.84829752  0.59338275  0.76510103    -0.39600
O1848       O  0.83562779  0.59034330  0.72959195    -0.39600
C1849       C  0.72632479  0.73638466  0.75677008    -0.11900
C1850       C  0.75886277  0.73863062  0.75071285     0.05100
C1851       C  0.78755278  0.77178268  0.74391471    -0.07200
C1852       C  0.78382931  0.80200344  0.74445614    -0.08000
C1853       C  0.75159694  0.79968124  0.75096732    -0.02500
C1854       C  0.72250756  0.76654057  0.75688027     0.04300
N1855       N  0.68997022  0.76357203  0.76479065     0.66800
H1856       H  0.70381364  0.71125937  0.76195549     0.15700
H1857       H  0.80635834  0.82751239  0.73984291     0.15400
N1858       N  0.82073740  0.77550932  0.73673607     0.74500
O1859       O  0.66391126  0.75321614  0.75167357    -0.38900
O1860       O  0.68544898  0.76556943  0.78550674    -0.38900
O1861       O  0.82672462  0.77503302  0.71609181    -0.39600
O1862       O  0.84631849  0.78688562  0.75030675    -0.39600
C1863       C  0.71926645  0.59896565  0.68066811    -0.11900
C1864       C  0.72363145  0.62840071  0.69312185     0.05100
C1865       C  0.72628756  0.65816755  0.68173011    -0.07200
C1866       C  0.72834853  0.65968636  0.65829351    -0.08000
C1867       C  0.72707144  0.63154208  0.64589756    -0.02500
C1868       C  0.72071204  0.60023736  0.65715441     0.04300
N1869       N  0.72021099  0.57139086  0.64513146     0.66800
H1870       H  0.71808617  0.57633642  0.68919023     0.15700
H1871       H  0.73372013  0.68403038  0.64988209     0.15400
N1872       N  0.73103434  0.68875396  0.69385878     0.74500
O1873       O  0.74852648  0.57007879  0.64310194    -0.38900
O1874       O  0.69078272  0.54429638  0.64035475    -0.38900
O1875       O  0.76167258  0.71580125  0.69540290    -0.39600
O1876       O  0.70417141  0.69102668  0.69956467    -0.39600
C1877       C  0.70693408  0.85325865  0.85676406    -0.11900
C1878       C  0.67436799  0.82069209  0.85653146     0.05100
C1879       C  0.65843241  0.80644314  0.83569787    -0.07200
C1880       C  0.67457513  0.82498910  0.81587644    -0.08000
C1881       C  0.70737964  0.85726535  0.81607361    -0.02500
C1882       C  0.72362203  0.87125906  0.83686503     0.04300
N1883       N  0.75662799  0.90405755  0.83815619     0.66800
H1884       H  0.71987297  0.86470477  0.87251876     0.15700
H1885       H  0.66175757  0.81336450  0.80012217     0.15400
N1886       N  0.62579947  0.77328726  0.83428843     0.74500
O1887       O  0.75667287  0.93325509  0.83813449    -0.38900
O1888       O  0.78475354  0.90370284  0.84301846    -0.38900
O1889       O  0.59713464  0.77320965  0.83053541    -0.39600
O1890       O  0.62661048  0.74462083  0.83248970    -0.39600
C1891       C  0.64761388  0.86987465  0.16890430    -0.11900
C1892       C  0.65538078  0.85811487  0.18882217     0.05100
C1893       C  0.66180958  0.82893237  0.18765575    -0.07200
C1894       C  0.65835207  0.81130773  0.16714168    -0.08000
C1895       C  0.65054221  0.82324142  0.14731099    -0.02500
C1896       C  0.64584001  0.85333103  0.14834358     0.04300
N1897       N  0.63710544  0.86629579  0.12880732     0.66800
H1898       H  0.64260571  0.89201089  0.16923480     0.15700
H1899       H  0.66271014  0.78876157  0.16662675     0.15400
N1900       N  0.67204851  0.81682062  0.20700655     0.74500
O1901       O  0.60586548  0.86086470  0.12654678    -0.38900
O1902       O  0.66177203  0.88937946  0.11673369    -0.38900
O1903       O  0.65254568  0.78529025  0.21385448    -0.39600
O1904       O  0.70363726  0.83454842  0.21400017    -0.39600
C1905       C  0.64710036  0.73345305  0.01332971    -0.11900
C1906       C  0.61848010  0.73047395  0.02601589     0.05100
C1907       C  0.58742982  0.72479478  0.01489971    -0.07200
C1908       C  0.58688536  0.72596108  0.99137982    -0.08000
C1909       C  0.61685978  0.73225068  0.97877193    -0.02500
C1910       C  0.64652053  0.73437557  0.98988791     0.04300
N1911       N  0.67805160  0.74194512  0.97780033     0.66800
H1912       H  0.67131484  0.73863142  0.02162695     0.15700
H1913       H  0.56441005  0.72506742  0.98321742     0.15400
N1914       N  0.55800354  0.72236489  0.02726143     0.74500
O1915       O  0.70143129  0.77398834  0.97422048    -0.38900
O1916       O  0.68618277  0.71785439  0.97565938    -0.38900
O1917       O  0.55402564  0.74927342  0.02880672    -0.39600
O1918       O  0.53299569  0.69216660  0.03315761    -0.39600
C1919       C  0.54286098  0.80313425  0.90613553    -0.11900
C1920       C  0.54463625  0.77337660  0.91356104     0.05100
C1921       C  0.51281081  0.74191765  0.91920580    -0.07200
C1922       C  0.97566403  0.73190023  0.91469715    -0.08000
C1923       C  0.97390008  0.76317718  0.91160817    -0.02500
C1924       C  0.00605891  0.79574222  0.90807924     0.04300
N1925       N  0.00624333  0.82856180  0.90487633     0.66800
H1926       H  0.56700424  0.82708974  0.90114117     0.15700
H1927       H  0.95151382  0.70669243  0.91753675     0.15400
N1928       N  0.51340410  0.71109457  0.92727907     0.74500
O1929       O  0.00903404  0.84772780  0.92156215    -0.38900
O1930       O  0.00915782  0.84088890  0.88537955    -0.38900
O1931       O  0.52838778  0.71240555  0.94559378    -0.39600
O1932       O  0.49749682  0.68204409  0.91665477    -0.39600
C1933       C  0.75922740  0.79893205  0.92775541    -0.11900
C1934       C  0.72687259  0.76811893  0.92283597     0.05100
C1935       C  0.72615934  0.73516409  0.92046541    -0.07200
C1936       C  0.75765751  0.73395626  0.92219564    -0.08000
C1937       C  0.79016632  0.76509736  0.92581300    -0.02500
C1938       C  0.79076333  0.79770093  0.92919503     0.04300
N1939       N  0.82312214  0.82970786  0.93437203     0.66800
H1940       H  0.76025619  0.82427264  0.93008132     0.15700
H1941       H  0.75684980  0.70875922  0.91972000     0.15400
N1942       N  0.69388279  0.70271230  0.91589936     0.74500
O1943       O  0.83791804  0.85369205  0.91970225    -0.38900
O1944       O  0.83303015  0.83671076  0.95447695    -0.38900
O1945       O  0.68695179  0.69109881  0.89609338    -0.39600
O1946       O  0.67598394  0.68264093  0.93186258    -0.39600
C1947       C  0.79263501  0.66784149  0.83611119    -0.11900
C1948       C  0.80936858  0.68456710  0.81598750     0.05100
C1949       C  0.84199284  0.71734489  0.81713490    -0.07200
C1950       C  0.85683070  0.73261762  0.83791794    -0.08000
C1951       C  0.84040897  0.71571166  0.85800135    -0.02500
C1952       C  0.80787024  0.68286993  0.85693714     0.04300
N1953       N  0.78897886  0.66517976  0.87684074     0.66800
H1954       H  0.76751764  0.64306179  0.83571663     0.15700
H1955       H  0.88154576  0.75781302  0.83829600     0.15400
N1956       N  0.85979921  0.73652954  0.79735275     0.74500
O1957       O  0.76736243  0.67333794  0.88545904    -0.38900
O1958       O  0.78901310  0.63746760  0.88334819    -0.38900
O1959       O  0.85907300  0.76448851  0.79239729    -0.39600
O1960       O  0.88228910  0.73031931  0.78796277    -0.39600
C1961       C  0.87709704  0.73078859  0.16831132    -0.11900
C1962       C  0.87134738  0.71074983  0.14870508     0.05100
C1963       C  0.86744497  0.67618891  0.15062779    -0.07200
C1964       C  0.87124385  0.66363520  0.17161641    -0.08000
C1965       C  0.87699627  0.68384146  0.19114028    -0.02500
C1966       C  0.87927408  0.71755594  0.18930134     0.04300
N1967       N  0.88579221  0.73979107  0.20845426     0.66800
H1968       H  0.88012945  0.75715110  0.16740344     0.15700
H1969       H  0.86881983  0.63754596  0.17271916     0.15400
N1970       N  0.85980138  0.65338706  0.13157661     0.74500
O1971       O  0.91611137  0.76697587  0.21093809    -0.38900
O1972       O  0.85979224  0.73711900  0.21962634    -0.38900
O1973       O  0.87975750  0.64069961  0.12706990    -0.39600
O1974       O  0.82927614  0.63934472  0.12285995    -0.39600
C1975       C  0.00322951  0.79342072  0.07641252    -0.11900
C1976       C  0.97310097  0.75954615  0.07958761     0.05100
C1977       C  0.97745302  0.72953935  0.08125572    -0.07200
C1978       C  0.51390599  0.73870663  0.08167233    -0.08000
C1979       C  0.54459935  0.77263950  0.08009831    -0.02500
C1980       C  0.54054728  0.80280646  0.07703225     0.04300
N1981       N  0.57054152  0.83792580  0.07429601     0.66800
H1982       H  0.00011104  0.81660334  0.07458073     0.15700
H1983       H  0.51629110  0.71512798  0.08369475     0.15400
N1984       N  0.94775104  0.69455034  0.08454505     0.74500
O1985       O  0.58991491  0.84500075  0.05709689    -0.38900
O1986       O  0.57248777  0.86332880  0.08583493    -0.38900
O1987       O  0.92928725  0.67723027  0.06792685    -0.39600
O1988       O  0.94522166  0.67828331  0.10255728    -0.39600
C1989       C  0.76062905  0.79820516  0.09099197    -0.11900
C1990       C  0.72701397  0.76731857  0.09143879     0.05100
C1991       C  0.72514729  0.73366682  0.09221257    -0.07200
C1992       C  0.75641130  0.73158319  0.09243716    -0.08000
C1993       C  0.78999378  0.76247294  0.09211451    -0.02500
C1994       C  0.79188959  0.79612232  0.09135770     0.04300
N1995       N  0.82532406  0.82851842  0.09003671     0.66800
H1996       H  0.76275128  0.82419424  0.09023715     0.15700
H1997       H  0.75432935  0.70559438  0.09286263     0.15400
N1998       N  0.69174206  0.70116847  0.09202608     0.74500
O1999       O  0.84012402  0.83965135  0.07124860    -0.38900
O2000       O  0.83701980  0.84867974  0.10690669    -0.38900
O2001       O  0.67894077  0.68555648  0.07368517    -0.39600
O2002       O  0.67850148  0.68502262  0.11017729    -0.39600
C2003       C  0.92892168  0.80842140  0.01645032    -0.11900
C2004       C  0.89625330  0.79941088  0.02670303     0.05100
C2005       C  0.86789424  0.79582350  0.01343968    -0.07200
C2006       C  0.87148283  0.79807280  0.99012436    -0.08000
C2007       C  0.90272526  0.80305519  0.97972012    -0.02500
C2008       C  0.93227040  0.81010437  0.99300180     0.04300
N2009       N  0.96450584  0.81544853  0.98290645     0.66800
H2010       H  0.95075615  0.81086049  0.02649960     0.15700
H2011       H  0.84840561  0.79197564  0.98006598     0.15400
N2012       N  0.83416110  0.78637937  0.02324771     0.74500
O2013       O  0.98841793  0.84653149  0.97758833    -0.38900
O2014       O  0.97113724  0.79017495  0.98222758    -0.38900
O2015       O  0.82364786  0.80882998  0.02346905    -0.39600
O2016       O  0.81237946  0.75413225  0.02767109    -0.39600
loop_ 
_geom_bond_atom_site_label_1 
_geom_bond_atom_site_label_2 
_geom_bond_distance 
_geom_bond_site_symmetry_2 
_ccdc_geom_bond_type 
O1            V9   1.913       .  S
O1           C11   1.269       .  A
O2            V9   1.912       .  S
O2           C12   1.268       .  A
O3            V9   1.897       .  S
O3           C13   1.262       .  A
O4            V9   1.888       .  S
O4           C14   1.261       .  A
O5           V10   1.915       .  S
O5           C14   1.266       .  A
O6           V10   1.916       .  S
O6           C13   1.271       .  A
O7           V10   1.879       .  S
O7           C12   1.260       .  A
O8           V10   1.888       .  S
O8           C11   1.260       .  A
V9           V10   2.085       .  T
C11         C481   1.485       .  S
C12         C464   1.476       .  S
C13         C450   1.495       .  S
C14         C492   1.470       .  S
O15          V23   1.908       .  S
O15          C25   1.268       .  A
O16          V23   1.901       .  S
O16          C26   1.266       .  A
O17          V23   1.893       .  S
O17          C27   1.262       .  A
O18          V23   1.886       .  S
O18          C28   1.261       .  A
O19          V24   1.917       .  S
O19          C28   1.267       .  A
O20          V24   1.919       .  S
O20          C27   1.271       .  A
O21          V24   1.884       .  S
O21          C26   1.260       .  A
O22          V24   1.894       .  S
O22          C25   1.262       .  A
V23          V24   2.086       .  T
C25         C411   1.489       .  S
C26         C425   1.471       .  S
C27         C439   1.489       .  S
C28         C495   1.470       .  S
O29          V37   1.913       .  S
O29          C39   1.270       .  A
O30          V37   1.909       .  S
O30          C40   1.267       .  A
O31          V37   1.896       .  S
O31          C41   1.263       .  A
O32          V37   1.888       .  S
O32          C42   1.261       .  A
O33          V38   1.921       .  S
O33          C42   1.268       .  A
O34          V38   1.925       .  S
O34          C41   1.271       .  A
O35          V38   1.878       .  S
O35          C40   1.261       .  A
O36          V38   1.889       .  S
O36          C39   1.261       .  A
V37          V38   2.084       .  T
C39         C478   1.486       .  S
C40         C467   1.479       .  S
C41         C383   1.492       .  S
C42         C394   1.475       .  S
O43          V51   1.911       .  S
O43          C53   1.268       .  A
O44          V51   1.902       .  S
O44          C54   1.267       .  A
O45          V51   1.891       .  S
O45          C55   1.261       .  A
O46          V51   1.887       .  S
O46          C56   1.260       .  A
O47          V52   1.922       .  S
O47          C56   1.269       .  A
O48          V52   1.924       .  S
O48          C55   1.271       .  A
O49          V52   1.881       .  S
O49          C54   1.259       .  A
O50          V52   1.888       .  S
O50          C53   1.261       .  A
V51          V52   2.086       .  T
C53         C408   1.482       .  S
C54         C422   1.473       .  S
C55         C366   1.487       .  S
C56         C397   1.476       .  S
O57          V65   1.913       .  S
O57          C67   1.269       .  A
O58          V65   1.908       .  S
O58          C68   1.267       .  A
O59          V65   1.894       .  S
O59          C69   1.261       .  A
O60          V65   1.887       .  S
O60          C70   1.261       .  A
O61          V66   1.919       .  S
O61          C70   1.267       .  A
O62          V66   1.921       .  S
O62          C69   1.272       .  A
O63          V66   1.876       .  S
O63          C68   1.259       .  A
O64          V66   1.888       .  S
O64          C67   1.262       .  A
V65          V66   2.085       .  T
C67         C324   1.488       .  S
C68         C338   1.474       .  S
C69         C436   1.496       .  S
C70         C352   1.473       .  S
O71          V79   1.919       .  S
O71          C81   1.270       .  A
O72          V79   1.912       .  S
O72          C82   1.268       .  A
O73          V79   1.895       .  S
O73          C83   1.261       .  A
O74          V79   1.889       .  S
O74          C84   1.261       .  A
O75          V80   1.918       .  S
O75          C84   1.267       .  A
O76          V80   1.919       .  S
O76          C83   1.271       .  A
O77          V80   1.879       .  S
O77          C82   1.260       .  A
O78          V80   1.890       .  S
O78          C81   1.262       .  A
V79          V80   2.085       .  T
C81         C299   1.491       .  S
C82         C282   1.479       .  S
C83         C310   1.491       .  S
C84         C355   1.474       .  S
O85          V93   1.915       .  S
O85          C95   1.270       .  A
O86          V93   1.909       .  S
O86          C96   1.267       .  A
O87          V93   1.892       .  S
O87          C97   1.261       .  A
O88          V93   1.888       .  S
O88          C98   1.261       .  A
O89          V94   1.922       .  S
O89          C98   1.268       .  A
O90          V94   1.923       .  S
O90          C97   1.273       .  A
O91          V94   1.874       .  S
O91          C96   1.259       .  A
O92          V94   1.889       .  S
O92          C95   1.261       .  A
V93          V94   2.086       .  T
C95         C327   1.484       .  S
C96         C341   1.472       .  S
C97         C369   1.499       .  S
C98         C268   1.477       .  S
O99         V107   1.913       .  S
O99         C109   1.269       .  A
O100        V107   1.907       .  S
O100        C110   1.267       .  A
O101        V107   1.893       .  S
O101        C111   1.262       .  A
O102        V107   1.888       .  S
O102        C112   1.262       .  A
O103        V108   1.921       .  S
O103        C112   1.268       .  A
O104        V108   1.923       .  S
O104        C111   1.272       .  A
O105        V108   1.882       .  S
O105        C110   1.260       .  A
O106        V108   1.897       .  S
O106        C109   1.263       .  A
V107        V108   2.085       .  T
C109        C296   1.491       .  S
C110        C285   1.472       .  S
C111        C254   1.493       .  S
C112        C271   1.476       .  S
O113        V121   1.910       .  S
O113        C123   1.269       .  A
O114        V121   1.909       .  S
O114        C124   1.267       .  A
O115        V121   1.899       .  S
O115        C125   1.262       .  A
O116        V121   1.889       .  S
O116        C126   1.261       .  A
O117        V122   1.918       .  S
O117        C126   1.267       .  A
O118        V122   1.922       .  S
O118        C125   1.273       .  A
O119        V122   1.880       .  S
O119        C124   1.259       .  A
O120        V122   1.888       .  S
O120        C123   1.260       .  A
V121        V122   2.086       .  T
C123        C215   1.485       .  S
C124        C226   1.472       .  S
C125        C380   1.502       .  S
C126        C240   1.473       .  S
O127        V135   1.909       .  S
O127        C137   1.267       .  A
O128        V135   1.905       .  S
O128        C138   1.267       .  A
O129        V135   1.890       .  S
O129        C139   1.261       .  A
O130        V135   1.889       .  S
O130        C140   1.261       .  A
O131        V136   1.920       .  S
O131        C140   1.268       .  A
O132        V136   1.926       .  S
O132        C139   1.272       .  A
O133        V136   1.887       .  S
O133        C138   1.260       .  A
O134        V136   1.891       .  S
O134        C137   1.262       .  A
V135        V136   2.086       .  T
C137        C198   1.478       .  S
C138        C184   1.473       .  S
C139        C257   1.494       .  S
C140        C243   1.474       .  S
O141        V149   1.917       .  S
O141        C151   1.270       .  A
O142        V149   1.915       .  S
O142        C152   1.268       .  A
O143        V149   1.889       .  S
O143        C153   1.260       .  A
O144        V149   1.881       .  S
O144        C154   1.260       .  A
O145        V150   1.923       .  S
O145        C154   1.268       .  A
O146        V150   1.923       .  S
O146        C153   1.271       .  A
O147        V150   1.875       .  S
O147        C152   1.260       .  A
O148        V150   1.880       .  S
O148        C151   1.258       .  A
V149        V150   2.085       .  T
C151        C212   1.482       .  S
C152        C229   1.482       .  S
C153        C453   1.487       .  S
C154        C170   1.472       .  S
O155        V163   1.913       .  S
O155        C165   1.268       .  A
O156        V163   1.910       .  S
O156        C166   1.268       .  A
O157        V163   1.893       .  S
O157        C167   1.262       .  A
O158        V163   1.885       .  S
O158        C168   1.261       .  A
O159        V164   1.918       .  S
O159        C168   1.267       .  A
O160        V164   1.918       .  S
O160        C167   1.270       .  A
O161        V164   1.888       .  S
O161        C166   1.261       .  A
O162        V164   1.895       .  S
O162        C165   1.264       .  A
V163        V164   2.085       .  T
C165        C201   1.494       .  S
C166        C187   1.483       .  S
C167        C313   1.492       .  S
C168        C173   1.474       .  S
C169        C170   1.401       .  A
C169        C174   1.395       .  A
C169        H176   1.084       .  S
C170        C171   1.409       .  A
C171        C172   1.409       .  A
C171        N178   1.427       .  S
C172        C173   1.406       .  A
C172        H177   1.083       .  S
C173        C174   1.408       .  A
C174        N175   1.429       .  S
N175        O179   1.262       .  A
N175        O180   1.262       .  A
N178        O182   1.262       .  A
N178        O181   1.262       .  A
C183        C184   1.399       .  A
C183        C692   1.398       .  A
C183        H190   1.082       .  S
C184        C689   1.411       .  A
C185        C186   1.400       .  A
C185        C688   1.414   1_545  A
C185        N696   1.430       .  S
C186        C187   1.403       .  A
C186        H191   1.082       .  S
C187        C188   1.417       .  A
C188        C687   1.400   1_545  A
C188        N189   1.429       .  S
N189        O193   1.262       .  A
N189        O194   1.262       .  A
N192        C689   1.429       .  S
N192        O196   1.262       .  A
N192        O195   1.262       .  A
C197        C198   1.404       .  A
C197       C1210   1.401   1_455  A
C197        H204   1.082       .  S
C198        C199   1.406       .  A
C199       C1208   1.401       .  A
C199        N206   1.429       .  S
C200        C201   1.411       .  A
C200       C1207   1.403       .  A
C200        H205   1.082       .  S
C201        C202   1.416       .  A
C202       C1205   1.404       .  A
C202        N203   1.430       .  S
N203        O207   1.262       .  A
N203        O208   1.262       .  A
N206        O210   1.262       .  A
N206        O209   1.262       .  A
C211        C212   1.401       .  A
C211        C216   1.403       .  A
C211        H218   1.082       .  S
C212        C213   1.416       .  A
C213        C214   1.398   1_545  A
C213        N220   1.429       .  S
C214        C719   1.400       .  A
C214        H723   1.082       .  S
C215        C718   1.400       .  A
C215        C720   1.418       .  A
C216        C719   1.419   1_545  A
C216        N721   1.429       .  S
N217        C720   1.430       .  S
N217        O725   1.262       .  A
N217        O222   1.262       .  A
H219        C718   1.082       .  S
N220        O224   1.262       .  A
N220        O223   1.261       .  A
O221        N721   1.262       .  A
C225        C226   1.406       .  A
C225       C1238   1.401   1_455  A
C225        H232   1.082       .  S
C226        C227   1.404       .  A
C227       C1236   1.396       .  A
C227        N234   1.428       .  S
C228        C229   1.410       .  A
C228       C1235   1.395       .  A
C228        H233   1.082       .  S
C229        C230   1.411       .  A
C230       C1233   1.401       .  A
C230        N231   1.430       .  S
N231        O235   1.262       .  A
N231        O236   1.262       .  A
N234        O238   1.261       .  A
N234        O237   1.262       .  A
C239        C240   1.404       .  A
C239        C244   1.404       .  A
C239        H246   1.083       .  S
C240        C241   1.409       .  A
C241        C242   1.404       .  A
C241        N248   1.430       .  S
C242        C243   1.404       .  A
C242        H247   1.081       .  S
C243        C244   1.408       .  A
C244        N245   1.429       .  S
N245        O249   1.262       .  A
N245        O250   1.262       .  A
N248        O252   1.262       .  A
N248        O251   1.262       .  A
C253        C254   1.411       .  A
C253        C258   1.407       .  A
C253        H260   1.081       .  S
C254        C255   1.408       .  A
C255        C256   1.405       .  A
C255        N262   1.428       .  S
C256        C257   1.411       .  A
C256        H261   1.081       .  S
C257        C258   1.409       .  A
C258        N259   1.428       .  S
N259        O263   1.262       .  A
N259        O264   1.262       .  A
N262        O266   1.262       .  A
N262        O265   1.262       .  A
C267        C268   1.403       .  A
C267        C272   1.410       .  A
C267        H274   1.082       .  S
C268        C269   1.411       .  A
C269        C270   1.397       .  A
C269        N276   1.428       .  S
C270        C271   1.398       .  A
C270        H275   1.083       .  S
C271        C272   1.413       .  A
C272        N273   1.428       .  S
N273        O277   1.261       .  A
N273        O278   1.262       .  A
N276        O280   1.261       .  A
N276        O279   1.262       .  A
C281        C282   1.409       .  A
C281        C286   1.397   1_545  A
C281        H288   1.082       .  S
C282        C283   1.409       .  A
C283        C284   1.397       .  A
C283        N290   1.429       .  S
C284        C789   1.406   1_545  A
C284        H793   1.082       .  S
C285        C788   1.406       .  A
C285        C790   1.405       .  A
C286        C789   1.405       .  A
C286        N791   1.429       .  S
N287        C790   1.429       .  S
N287        O291   1.262       .  A
N287        O292   1.262       .  A
H289        C788   1.082       .  S
N290        O294   1.261       .  A
N290        O293   1.262       .  A
C295        C296   1.409       .  A
C295        C300   1.405       .  A
C295        H302   1.082       .  S
C296        C297   1.410       .  A
C297        C298   1.403       .  A
C297        N304   1.429       .  S
C298        C299   1.409       .  A
C298        H303   1.082       .  S
C299        C300   1.410       .  A
C300        N301   1.429       .  S
N301        O305   1.262       .  A
N301        O306   1.262       .  A
N304        O308   1.262       .  A
N304        O307   1.262       .  A
C309        C310   1.402       .  A
C309        C314   1.404       .  A
C309        H316   1.082       .  S
C310        C311   1.418       .  A
C311        C312   1.405       .  A
C311        N318   1.429       .  S
C312        C313   1.402       .  A
C312        H317   1.082       .  S
C313        C314   1.418       .  A
C314        N315   1.429       .  S
N315        O319   1.262       .  A
N315        O320   1.262       .  A
N318        O322   1.262       .  A
N318        O321   1.262       .  A
C323        C324   1.410       .  A
C323        C328   1.402   1_545  A
C323        H330   1.082       .  S
C324        C325   1.411       .  A
C325        C326   1.402       .  A
C325        N332   1.429       .  S
C326        C831   1.407   1_545  A
C326        H835   1.082       .  S
C327        C830   1.408       .  A
C327        C832   1.407       .  A
C328        C831   1.407       .  A
C328        N833   1.429       .  S
N329        C832   1.429       .  S
N329        O333   1.262       .  A
N329        O334   1.262       .  A
H331        C830   1.082       .  S
N332        O336   1.262       .  A
N332        O335   1.262       .  A
C337        C338   1.408       .  A
C337        C342   1.397       .  A
C337        H344   1.082       .  S
C338        C339   1.407       .  A
C339        C340   1.396       .  A
C339        N346   1.430       .  S
C340        C341   1.407       .  A
C340        H345   1.082       .  S
C341        C342   1.405       .  A
C342        N343   1.428       .  S
N343        O347   1.262       .  A
N343        O348   1.261       .  A
N346        O350   1.261       .  A
N346        O349   1.262       .  A
C351        C352   1.400       .  A
C351        C356   1.401       .  A
C351        H358   1.083       .  S
C352        C353   1.411       .  A
C353        C354   1.405       .  A
C353        N360   1.429       .  S
C354        C355   1.401       .  A
C354        H359   1.083       .  S
C355        C356   1.411       .  A
C356        N357   1.429       .  S
N357        O361   1.262       .  A
N357        O362   1.262       .  A
N360        O364   1.262       .  A
N360        O363   1.262       .  A
C365        C366   1.399       .  A
C365        C370   1.406       .  A
C365        H372   1.082       .  S
C366        C367   1.415       .  A
C367        C368   1.405       .  A
C367        N374   1.429       .  S
C368        C369   1.404       .  A
C368        H373   1.082       .  S
C369        C370   1.423       .  A
C370        N371   1.429       .  S
N371        O375   1.261       .  A
N371        O376   1.262       .  A
N374        O378   1.262       .  A
N374        O377   1.262       .  A
C379        C380   1.404       .  A
C379        C384   1.404       .  A
C379        H386   1.082       .  S
C380        C381   1.423       .  A
C381        C382   1.411       .  A
C381        N388   1.430       .  S
C382        C383   1.402       .  A
C382        H387   1.082       .  S
C383        C384   1.414       .  A
C384        N385   1.428       .  S
N385        O389   1.261       .  A
N385        O390   1.262       .  A
N388        O392   1.262       .  A
N388        O391   1.261       .  A
C393        C394   1.400       .  A
C393        C398   1.401   1_554  A
C393        H400   1.083       .  S
C394        C395   1.411       .  A
C395        C396   1.407   1_554  A
C395        N402   1.429       .  S
C396        C397   1.403       .  A
C396        H401   1.082       .  S
C397        C398   1.412       .  A
C398        N399   1.430       .  S
N399        O403   1.262       .  A
N399        O404   1.262       .  A
N402        O406   1.262       .  A
N402        O405   1.262       .  A
C407        C408   1.400       .  A
C407       C1420   1.402       .  A
C407        H414   1.084       .  S
C408        C409   1.415       .  A
C409       C1418   1.401   1_455  A
C409        N416   1.431       .  S
C410        C411   1.404       .  A
C410       C1417   1.402       .  A
C410        H415   1.084       .  S
C411        C412   1.418       .  A
C412       C1415   1.402       .  A
C412        N413   1.429       .  S
N413        O417   1.262       .  A
N413        O418   1.262       .  A
N416        O420   1.262   1_455  A
N416        O419   1.262       .  A
C421        C422   1.400       .  A
C421        C426   1.395       .  A
C421        H428   1.087       .  S
C422        C423   1.415       .  A
C423        C424   1.395       .  A
C423        N430   1.430       .  S
C424        C425   1.399       .  A
C424        H429   1.087       .  S
C425        C426   1.413       .  A
C426        N427   1.429       .  S
N427        O431   1.262       .  A
N427        O432   1.262       .  A
N430        O434   1.261       .  A
N430        O433   1.262       .  A
C435        C436   1.404       .  A
C435        C440   1.405       .  A
C435        H442   1.082       .  S
C436        C437   1.422       .  A
C437        C438   1.406       .  A
C437        N444   1.430       .  S
C438        C439   1.400       .  A
C438        H443   1.082       .  S
C439        C440   1.416       .  A
C440        N441   1.429       .  S
N441        O445   1.262       .  A
N441        O446   1.262       .  A
N444        O448   1.262       .  A
N444        O447   1.262       .  A
C449        C450   1.403       .  A
C449        C454   1.401       .  A
C449        H456   1.082       .  S
C450        C451   1.421       .  A
C451        C452   1.408       .  A
C451        N458   1.429       .  S
C452        C453   1.401       .  A
C452        H457   1.082       .  S
C453        C454   1.414       .  A
C454        N455   1.428       .  S
N455        O459   1.261       .  A
N455        O460   1.262       .  A
N458        O462   1.262       .  A
N458        O461   1.261       .  A
C463        C464   1.406       .  A
C463       C1476   1.401       .  A
C463        H470   1.082       .  S
C464        C465   1.405       .  A
C465       C1474   1.397       .  A
C465        N472   1.428       .  S
C466        C467   1.408       .  A
C466       C1473   1.394   1_455  A
C466        H471   1.082       .  S
C467        C468   1.411       .  A
C468       C1471   1.401       .  A
C468        N469   1.429       .  S
N469        O473   1.262       .  A
N469        O474   1.262       .  A
N472        O476   1.261       .  A
N472        O475   1.262       .  A
C477        C478   1.401       .  A
C477        C482   1.401       .  A
C477        H484   1.082       .  S
C478        C479   1.417       .  A
C479        C480   1.401       .  A
C479        N486   1.429       .  S
C480        C481   1.401       .  A
C480        H485   1.082       .  S
C481        C482   1.417       .  A
C482        N483   1.429       .  S
N483        O487   1.262       .  A
N483        O488   1.262       .  A
N486        O490   1.262       .  A
N486        O489   1.262       .  A
C491        C492   1.405       .  A
C491        C496   1.406   1_554  A
C491        H498   1.083       .  S
C492        C493   1.407       .  A
C493        C494   1.399   1_554  A
C493        N500   1.430       .  S
C494        C495   1.403       .  A
C494        H499   1.083       .  S
C495        C496   1.407       .  A
C496        N497   1.428       .  S
N497        O501   1.262       .  A
N497        O502   1.262       .  A
N500        O504   1.262       .  A
N500        O503   1.262       .  A
O505        V513   1.910       .  S
O505        C515   1.269       .  A
O506        V513   1.910       .  S
O506        C516   1.267       .  A
O507        V513   1.898       .  S
O507        C517   1.262       .  A
O508        V513   1.890       .  S
O508        C518   1.261       .  A
O509        V514   1.915       .  S
O509        C518   1.266       .  A
O510        V514   1.917       .  S
O510        C517   1.272       .  A
O511        V514   1.883       .  S
O511        C516   1.260       .  A
O512        V514   1.890       .  S
O512        C515   1.261       .  A
V513        V514   2.085       .  T
C515        C985   1.484       .  S
C516        C968   1.475       .  S
C517        C954   1.498       .  S
C518        C996   1.472       .  S
O519        V527   1.905       .  S
O519        C529   1.268       .  A
O520        V527   1.898       .  S
O520        C530   1.265       .  A
O521        V527   1.893       .  S
O521        C531   1.262       .  A
O522        V527   1.887       .  S
O522        C532   1.261       .  A
O523        V528   1.919       .  S
O523        C532   1.267       .  A
O524        V528   1.922       .  S
O524        C531   1.271       .  A
O525        V528   1.889       .  S
O525        C530   1.262       .  A
O526        V528   1.898       .  S
O526        C529   1.263       .  A
V527        V528   2.086       .  T
C529        C915   1.491       .  S
C530        C929   1.471       .  S
C531        C943   1.489       .  S
C532        C999   1.472       .  S
O533        V541   1.912       .  S
O533        C543   1.269       .  A
O534        V541   1.907       .  S
O534        C544   1.266       .  A
O535        V541   1.896       .  S
O535        C545   1.262       .  A
O536        V541   1.891       .  S
O536        C546   1.262       .  A
O537        V542   1.920       .  S
O537        C546   1.267       .  A
O538        V542   1.923       .  S
O538        C545   1.270       .  A
O539        V542   1.879       .  S
O539        C544   1.261       .  A
O540        V542   1.889       .  S
O540        C543   1.261       .  A
V541        V542   2.085       .  T
C543        C982   1.486       .  S
C544        C971   1.477       .  S
C545        C887   1.488       .  S
C546        C898   1.475       .  S
O547        V555   1.908       .  S
O547        C557   1.267       .  A
O548        V555   1.901       .  S
O548        C558   1.267       .  A
O549        V555   1.890       .  S
O549        C559   1.261       .  A
O550        V555   1.888       .  S
O550        C560   1.260       .  A
O551        V556   1.922       .  S
O551        C560   1.269       .  A
O552        V556   1.924       .  S
O552        C559   1.272       .  A
O553        V556   1.882       .  S
O553        C558   1.259       .  A
O554        V556   1.893       .  S
O554        C557   1.262       .  A
V555        V556   2.085       .  T
C557        C912   1.482       .  S
C558        C926   1.474       .  S
C559        C870   1.495       .  S
C560        C901   1.476       .  S
O561        V569   1.918       .  S
O561        C571   1.270       .  A
O562        V569   1.910       .  S
O562        C572   1.268       .  A
O563        V569   1.896       .  S
O563        C573   1.262       .  A
O564        V569   1.888       .  S
O564        C574   1.261       .  A
O565        V570   1.919       .  S
O565        C574   1.267       .  A
O566        V570   1.919       .  S
O566        C573   1.272       .  A
O567        V570   1.872       .  S
O567        C572   1.258       .  A
O568        V570   1.885       .  S
O568        C571   1.261       .  A
V569        V570   2.085       .  T
C571        C828   1.489       .  S
C572        C842   1.476       .  S
C573        C940   1.497       .  S
C574        C856   1.474       .  S
O575        V583   1.919       .  S
O575        C585   1.270       .  A
O576        V583   1.915       .  S
O576        C586   1.269       .  A
O577        V583   1.894       .  S
O577        C587   1.261       .  A
O578        V583   1.889       .  S
O578        C588   1.261       .  A
O579        V584   1.918       .  S
O579        C588   1.267       .  A
O580        V584   1.918       .  S
O580        C587   1.271       .  A
O581        V584   1.877       .  S
O581        C586   1.260       .  A
O582        V584   1.887       .  S
O582        C585   1.261       .  A
V583        V584   2.084       .  T
C585        C803   1.488       .  S
C586        C786   1.479       .  S
C587        C814   1.490       .  S
C588        C859   1.474       .  S
O589        V597   1.916       .  S
O589        C599   1.270       .  A
O590        V597   1.908       .  S
O590        C600   1.267       .  A
O591        V597   1.886       .  S
O591        C601   1.260       .  A
O592        V597   1.888       .  S
O592        C602   1.260       .  A
O593        V598   1.927       .  S
O593        C602   1.270       .  A
O594        V598   1.930       .  S
O594        C601   1.273       .  A
O595        V598   1.874       .  S
O595        C600   1.257       .  A
O596        V598   1.887       .  S
O596        C599   1.260       .  A
V597        V598   2.087       .  T
C599        C831   1.482       .  S
C600        C845   1.466       .  S
C601        C873   1.492       .  S
C602        C772   1.481       .  S
O603        V611   1.913       .  S
O603        C613   1.269       .  A
O604        V611   1.908       .  S
O604        C614   1.267       .  A
O605        V611   1.895       .  S
O605        C615   1.263       .  A
O606        V611   1.891       .  S
O606        C616   1.262       .  A
O607        V612   1.921       .  S
O607        C616   1.268       .  A
O608        V612   1.924       .  S
O608        C615   1.271       .  A
O609        V612   1.878       .  S
O609        C614   1.259       .  A
O610        V612   1.894       .  S
O610        C613   1.263       .  A
V611        V612   2.085       .  T
C613        C800   1.490       .  S
C614        C789   1.471       .  S
C615        C758   1.496       .  S
C616        C775   1.480       .  S
O617        V625   1.909       .  S
O617        C627   1.269       .  A
O618        V625   1.909       .  S
O618        C628   1.267       .  A
O619        V625   1.900       .  S
O619        C629   1.263       .  A
O620        V625   1.891       .  S
O620        C630   1.261       .  A
O621        V626   1.916       .  S
O621        C630   1.267       .  A
O622        V626   1.918       .  S
O622        C629   1.272       .  A
O623        V626   1.877       .  S
O623        C628   1.259       .  A
O624        V626   1.888       .  S
O624        C627   1.260       .  A
V625        V626   2.086       .  T
C627        C719   1.485       .  S
C628        C730   1.471       .  S
C629        C884   1.500       .  S
C630        C744   1.473       .  S
O631        V639   1.914       .  S
O631        C641   1.268       .  A
O632        V639   1.910       .  S
O632        C642   1.268       .  A
O633        V639   1.889       .  S
O633        C643   1.261       .  A
O634        V639   1.888       .  S
O634        C644   1.260       .  A
O635        V640   1.921       .  S
O635        C644   1.268       .  A
O636        V640   1.927       .  S
O636        C643   1.272       .  A
O637        V640   1.886       .  S
O637        C642   1.260       .  A
O638        V640   1.890       .  S
O638        C641   1.261       .  A
V639        V640   2.085       .  T
C641        C702   1.478       .  S
C642        C688   1.478       .  S
C643        C761   1.493       .  S
C644        C747   1.474       .  S
O645        V653   1.915       .  S
O645        C655   1.270       .  A
O646        V653   1.911       .  S
O646        C656   1.267       .  A
O647        V653   1.892       .  S
O647        C657   1.261       .  A
O648        V653   1.885       .  S
O648        C658   1.260       .  A
O649        V654   1.921       .  S
O649        C658   1.268       .  A
O650        V654   1.923       .  S
O650        C657   1.271       .  A
O651        V654   1.877       .  S
O651        C656   1.260       .  A
O652        V654   1.883       .  S
O652        C655   1.259       .  A
V653        V654   2.085       .  T
C655        C716   1.483       .  S
C656        C733   1.481       .  S
C657        C957   1.489       .  S
C658        C674   1.473       .  S
O659        V667   1.907       .  S
O659        C669   1.267       .  A
O660        V667   1.905       .  S
O660        C670   1.268       .  A
O661        V667   1.892       .  S
O661        C671   1.261       .  A
O662        V667   1.886       .  S
O662        C672   1.261       .  A
O663        V668   1.918       .  S
O663        C672   1.267       .  A
O664        V668   1.917       .  S
O664        C671   1.270       .  A
O665        V668   1.886       .  S
O665        C670   1.260       .  A
O666        V668   1.892       .  S
O666        C669   1.263       .  A
V667        V668   2.085       .  T
C669        C705   1.489       .  S
C670        C691   1.481       .  S
C671        C817   1.491       .  S
C672        C677   1.473       .  S
C673        C674   1.402       .  A
C673        C678   1.398       .  A
C673        H680   1.083       .  S
C674        C675   1.408       .  A
C675        C676   1.407       .  A
C675        N682   1.427       .  S
C676        C677   1.405       .  A
C676        H681   1.083       .  S
C677        C678   1.407       .  A
C678        N679   1.429       .  S
N679        O683   1.262       .  A
N679        O684   1.262       .  A
N682        O686   1.262       .  A
N682        O685   1.262       .  A
C687        C688   1.400       .  A
C687        H694   1.082       .  S
C689        C690   1.398       .  A
C690        C691   1.404       .  A
C690        H695   1.082       .  S
C691        C692   1.417       .  A
C692        N693   1.429       .  S
N693        O697   1.262       .  A
N693        O698   1.262       .  A
N696        O700   1.262       .  A
N696        O699   1.262       .  A
C701        C702   1.403       .  A
C701       C1714   1.401   1_455  A
C701        H708   1.083       .  S
C702        C703   1.406       .  A
C703       C1712   1.403       .  A
C703        N710   1.429       .  S
C704       C1711   1.401       .  A
C704        C705   1.410       .  A
C704        H709   1.082       .  S
C705        C706   1.414       .  A
C706       C1709   1.401       .  A
C706        N707   1.429       .  S
N707        O711   1.262       .  A
N707        O712   1.262       .  A
N710        O714   1.262       .  A
N710        O713   1.262       .  A
C715        C716   1.401       .  A
C715        C720   1.402       .  A
C715        H722   1.082       .  S
C716        C717   1.416       .  A
C717        C718   1.399       .  A
C717        N724   1.429       .  S
N721        O726   1.262       .  A
N724        O728   1.262       .  A
N724        O727   1.261       .  A
C729        C730   1.404       .  A
C729       C1742   1.397   1_455  A
C729        H736   1.082       .  S
C730        C731   1.404       .  A
C731       C1740   1.398       .  A
C731        N738   1.428       .  S
C732       C1739   1.395       .  A
C732        C733   1.410       .  A
C732        H737   1.082       .  S
C733        C734   1.413       .  A
C734       C1737   1.401       .  A
C734        N735   1.431       .  S
N735        O739   1.262       .  A
N735        O740   1.262       .  A
N738        O742   1.261       .  A
N738        O741   1.262       .  A
C743        C744   1.403       .  A
C743        C748   1.404       .  A
C743        H750   1.083       .  S
C744        C745   1.408       .  A
C745        C746   1.404       .  A
C745        N752   1.429       .  S
C746        C747   1.404       .  A
C746        H751   1.083       .  S
C747        C748   1.408       .  A
C748        N749   1.429       .  S
N749        O753   1.262       .  A
N749        O754   1.262       .  A
N752        O756   1.262       .  A
N752        O755   1.262   1_565  A
C757        C758   1.412       .  A
C757        C762   1.407       .  A
C757        H764   1.081       .  S
C758        C759   1.410       .  A
C759        C760   1.406       .  A
C759        N766   1.428       .  S
C760        C761   1.410       .  A
C760        H765   1.081       .  S
C761        C762   1.409       .  A
C762        N763   1.428       .  S
N763        O767   1.262       .  A
N763        O768   1.262       .  A
N766        O770   1.262       .  A
N766        O769   1.262       .  A
C771        C772   1.403       .  A
C771        C776   1.410       .  A
C771        H778   1.082       .  S
C772        C773   1.412       .  A
C773        C774   1.400       .  A
C773        N780   1.428       .  S
C774        C775   1.399       .  A
C774        H779   1.083       .  S
C775        C776   1.413       .  A
C776        N777   1.428       .  S
N777        O781   1.261       .  A
N777        O782   1.262       .  A
N780        O784   1.261       .  A
N780        O783   1.262       .  A
C785        C786   1.409       .  A
C785        C790   1.397       .  A
C785        H792   1.082       .  S
C786        C787   1.408       .  A
C787        C788   1.399       .  A
C787        N794   1.429       .  S
N791        O795   1.262       .  A
N791        O796   1.262       .  A
N794        O798   1.261       .  A
N794        O797   1.262       .  A
C799        C800   1.410       .  A
C799        C804   1.404       .  A
C799        H806   1.082       .  S
C800        C801   1.410       .  A
C801        C802   1.402       .  A
C801        N808   1.429       .  S
C802        C803   1.408       .  A
C802        H807   1.082       .  S
C803        C804   1.409       .  A
C804        N805   1.429       .  S
N805        O809   1.262       .  A
N805        O810   1.262       .  A
N808        O812   1.262       .  A
N808        O811   1.262       .  A
C813        C814   1.402       .  A
C813        C818   1.403       .  A
C813        H820   1.082       .  S
C814        C815   1.419       .  A
C815        C816   1.405       .  A
C815        N822   1.430       .  S
C816        C817   1.402       .  A
C816        H821   1.082       .  S
C817        C818   1.417       .  A
C818        N819   1.429       .  S
N819        O823   1.262       .  A
N819        O824   1.262       .  A
N822        O826   1.262       .  A
N822        O825   1.262       .  A
C827        C828   1.410       .  A
C827        C832   1.401       .  A
C827        H834   1.082       .  S
C828        C829   1.410       .  A
C829        C830   1.404       .  A
C829        N836   1.429       .  S
N833        O837   1.262       .  A
N833        O838   1.262       .  A
N836        O840   1.262       .  A
N836        O839   1.262       .  A
C841        C842   1.410       .  A
C841        C846   1.394       .  A
C841        H848   1.082       .  S
C842        C843   1.408       .  A
C843        C844   1.396       .  A
C843        N850   1.429       .  S
C844        C845   1.405       .  A
C844        H849   1.082       .  S
C845        C846   1.402       .  A
C846        N847   1.429       .  S
N847        O851   1.262       .  A
N847        O852   1.262       .  A
N850        O854   1.261       .  A
N850        O853   1.262       .  A
C855        C856   1.401       .  A
C855        C860   1.405       .  A
C855        H862   1.083       .  S
C856        C857   1.411       .  A
C857        C858   1.402       .  A
C857        N864   1.430       .  S
C858        C859   1.400       .  A
C858        H863   1.083       .  S
C859        C860   1.411       .  A
C860        N861   1.428       .  S
N861        O865   1.262       .  A
N861        O866   1.262       .  A
N864        O868   1.262       .  A
N864        O867   1.262       .  A
C869        C870   1.413       .  A
C869        C874   1.407       .  A
C869        H876   1.082       .  S
C870        C871   1.409       .  A
C871        C872   1.405       .  A
C871        N878   1.429       .  S
C872        C873   1.411       .  A
C872        H877   1.081       .  S
C873        C874   1.407       .  A
C874        N875   1.428       .  S
N875        O879   1.262       .  A
N875        O880   1.262       .  A
N878        O882   1.262       .  A
N878        O881   1.262       .  A
C883        C884   1.405       .  A
C883        C888   1.403       .  A
C883        H890   1.082       .  S
C884        C885   1.423       .  A
C885        C886   1.410       .  A
C885        N892   1.429       .  S
C886        C887   1.401       .  A
C886        H891   1.082       .  S
C887        C888   1.412       .  A
C888        N889   1.428       .  S
N889        O893   1.262       .  A
N889        O894   1.262       .  A
N892        O896   1.262       .  A
N892        O895   1.262       .  A
C897        C898   1.400       .  A
C897        C902   1.404   1_554  A
C897        H904   1.083       .  S
C898        C899   1.411       .  A
C899        C900   1.404   1_554  A
C899        N906   1.429       .  S
C900        C901   1.402       .  A
C900        H905   1.083       .  S
C901        C902   1.412       .  A
C902        N903   1.428       .  S
N903        O907   1.261       .  A
N903        O908   1.261       .  A
N906        O910   1.262       .  A
N906        O909   1.262       .  A
C911        C912   1.400       .  A
C911       C1924   1.401       .  A
C911        H918   1.084       .  S
C912        C913   1.414       .  A
C913       C1922   1.403   1_455  A
C913        N920   1.431       .  S
C914       C1921   1.400       .  A
C914        C915   1.405       .  A
C914        H919   1.084       .  S
C915        C916   1.418       .  A
C916       C1919   1.404       .  A
C916        N917   1.429       .  S
N917        O921   1.262       .  A
N917        O922   1.262       .  A
N920        O924   1.262   1_455  A
N920        O923   1.262       .  A
C925        C926   1.402       .  A
C925        C930   1.397       .  A
C925        H932   1.085       .  S
C926        C927   1.416       .  A
C927        C928   1.395       .  A
C927        N934   1.430       .  S
C928        C929   1.399       .  A
C928        H933   1.085       .  S
C929        C930   1.411       .  A
C930        N931   1.429       .  S
N931        O935   1.262       .  A
N931        O936   1.262       .  A
N934        O938   1.261       .  A
N934        O937   1.262       .  A
C939        C940   1.403       .  A
C939        C944   1.404       .  A
C939        H946   1.082       .  S
C940        C941   1.421       .  A
C941        C942   1.407       .  A
C941        N948   1.428       .  S
C942        C943   1.400       .  A
C942        H947   1.082       .  S
C943        C944   1.415       .  A
C944        N945   1.428       .  S
N945        O949   1.261       .  A
N945        O950   1.262       .  A
N948        O952   1.262       .  A
N948        O951   1.261       .  A
C953        C954   1.403       .  A
C953        C958   1.402       .  A
C953        H960   1.082       .  S
C954        C955   1.423       .  A
C955        C956   1.409       .  A
C955        N962   1.431       .  S
C956        C957   1.401       .  A
C956        H961   1.082       .  S
C957        C958   1.414       .  A
C958        N959   1.428       .  S
N959        O963   1.261       .  A
N959        O964   1.262       .  A
N962        O966   1.262       .  A
N962        O965   1.262       .  A
C967        C968   1.406       .  A
C967       C1980   1.403       .  A
C967        H974   1.082       .  S
C968        C969   1.405       .  A
C969       C1978   1.396       .  A
C969        N976   1.428       .  S
C970       C1977   1.395   1_455  A
C970        C971   1.407       .  A
C970        H975   1.082       .  S
C971        C972   1.410       .  A
C972       C1975   1.400       .  A
C972        N973   1.432       .  S
N973        O977   1.262       .  A
N973        O978   1.262       .  A
N976        O980   1.261       .  A
N976        O979   1.262       .  A
C981        C982   1.402       .  A
C981        C986   1.402       .  A
C981        H988   1.082       .  S
C982        C983   1.417       .  A
C983        C984   1.401       .  A
C983        N990   1.429       .  S
C984        C985   1.401       .  A
C984        H989   1.082       .  S
C985        C986   1.416       .  A
C986        N987   1.429       .  S
N987        O991   1.262       .  A
N987        O992   1.262       .  A
N990        O994   1.262       .  A
N990        O993   1.262       .  A
C995        C996   1.405       .  A
C995       C1000   1.406   1_554  A
C995       H1002   1.083       .  S
C996        C997   1.408       .  A
C997        C998   1.401   1_554  A
C997       N1004   1.430       .  S
C998        C999   1.403       .  A
C998       H1003   1.083       .  S
C999       C1000   1.407       .  A
C1000      N1001   1.428       .  S
N1001      O1005   1.262       .  A
N1001      O1006   1.262       .  A
N1004      O1008   1.262       .  A
N1004      O1007   1.262       .  A
O1009      V1017   1.910       .  S
O1009      C1019   1.269       .  A
O1010      V1017   1.908       .  S
O1010      C1020   1.267       .  A
O1011      V1017   1.893       .  S
O1011      C1021   1.260       .  A
O1012      V1017   1.886       .  S
O1012      C1022   1.261       .  A
O1013      V1018   1.916       .  S
O1013      C1022   1.267       .  A
O1014      V1018   1.919       .  S
O1014      C1021   1.272       .  A
O1015      V1018   1.882       .  S
O1015      C1020   1.259       .  A
O1016      V1018   1.890       .  S
O1016      C1019   1.261       .  A
V1017      V1018   2.086       .  T
C1019      C1489   1.484       .  S
C1020      C1472   1.469       .  S
C1021      C1458   1.496       .  S
C1022      C1500   1.472       .  S
O1023      V1031   1.909       .  S
O1023      C1033   1.268       .  A
O1024      V1031   1.901       .  S
O1024      C1034   1.265       .  A
O1025      V1031   1.895       .  S
O1025      C1035   1.262       .  A
O1026      V1031   1.887       .  S
O1026      C1036   1.261       .  A
O1027      V1032   1.918       .  S
O1027      C1036   1.267       .  A
O1028      V1032   1.923       .  S
O1028      C1035   1.271       .  A
O1029      V1032   1.885       .  S
O1029      C1034   1.260       .  A
O1030      V1032   1.892       .  S
O1030      C1033   1.262       .  A
V1031      V1032   2.086       .  T
C1033      C1419   1.489       .  S
C1034      C1433   1.468       .  S
C1035      C1447   1.489       .  S
C1036      C1503   1.472       .  S
O1037      V1045   1.912       .  S
O1037      C1047   1.269       .  A
O1038      V1045   1.908       .  S
O1038      C1048   1.266       .  A
O1039      V1045   1.894       .  S
O1039      C1049   1.261       .  A
O1040      V1045   1.889       .  S
O1040      C1050   1.261       .  A
O1041      V1046   1.920       .  S
O1041      C1050   1.268       .  A
O1042      V1046   1.923       .  S
O1042      C1049   1.271       .  A
O1043      V1046   1.882       .  S
O1043      C1048   1.261       .  A
O1044      V1046   1.890       .  S
O1044      C1047   1.261       .  A
V1045      V1046   2.084       .  T
C1047      C1486   1.488       .  S
C1048      C1475   1.479       .  S
C1049      C1391   1.488       .  S
C1050      C1402   1.475       .  S
O1051      V1059   1.911       .  S
O1051      C1061   1.268       .  A
O1052      V1059   1.904       .  S
O1052      C1062   1.268       .  A
O1053      V1059   1.893       .  S
O1053      C1063   1.262       .  A
O1054      V1059   1.888       .  S
O1054      C1064   1.260       .  A
O1055      V1060   1.921       .  S
O1055      C1064   1.268       .  A
O1056      V1060   1.921       .  S
O1056      C1063   1.272       .  A
O1057      V1060   1.878       .  S
O1057      C1062   1.258       .  A
O1058      V1060   1.889       .  S
O1058      C1061   1.261       .  A
V1059      V1060   2.085       .  T
C1061      C1416   1.482       .  S
C1062      C1430   1.475       .  S
C1063      C1374   1.499       .  S
C1064      C1405   1.475       .  S
O1065      V1073   1.914       .  S
O1065      C1075   1.269       .  A
O1066      V1073   1.907       .  S
O1066      C1076   1.267       .  A
O1067      V1073   1.898       .  S
O1067      C1077   1.262       .  A
O1068      V1073   1.888       .  S
O1068      C1078   1.261       .  A
O1069      V1074   1.920       .  S
O1069      C1078   1.267       .  A
O1070      V1074   1.919       .  S
O1070      C1077   1.271       .  A
O1071      V1074   1.870       .  S
O1071      C1076   1.258       .  A
O1072      V1074   1.881       .  S
O1072      C1075   1.260       .  A
V1073      V1074   2.085       .  T
C1075      C1332   1.485       .  S
C1076      C1346   1.473       .  S
C1077      C1444   1.500       .  S
C1078      C1360   1.474       .  S
O1079      V1087   1.918       .  S
O1079      C1089   1.270       .  A
O1080      V1087   1.914       .  S
O1080      C1090   1.269       .  A
O1081      V1087   1.888       .  S
O1081      C1091   1.259       .  A
O1082      V1087   1.885       .  S
O1082      C1092   1.260       .  A
O1083      V1088   1.921       .  S
O1083      C1092   1.268       .  A
O1084      V1088   1.920       .  S
O1084      C1091   1.271       .  A
O1085      V1088   1.878       .  S
O1085      C1090   1.259       .  A
O1086      V1088   1.887       .  S
O1086      C1089   1.261       .  A
V1087      V1088   2.084       .  T
C1089      C1307   1.489       .  S
C1090      C1290   1.479       .  S
C1091      C1318   1.490       .  S
C1092      C1363   1.473       .  S
O1093      V1101   1.912       .  S
O1093      C1103   1.268       .  A
O1094      V1101   1.904       .  S
O1094      C1104   1.266       .  A
O1095      V1101   1.887       .  S
O1095      C1105   1.260       .  A
O1096      V1101   1.886       .  S
O1096      C1106   1.261       .  A
O1097      V1102   1.925       .  S
O1097      C1106   1.269       .  A
O1098      V1102   1.927       .  S
O1098      C1105   1.272       .  A
O1099      V1102   1.876       .  S
O1099      C1104   1.258       .  A
O1100      V1102   1.883       .  S
O1100      C1103   1.260       .  A
V1101      V1102   2.087       .  T
C1103      C1335   1.478       .  S
C1104      C1349   1.467       .  S
C1105      C1377   1.484       .  S
C1106      C1276   1.480       .  S
O1107      V1115   1.911       .  S
O1107      C1117   1.268       .  A
O1108      V1115   1.907       .  S
O1108      C1118   1.267       .  A
O1109      V1115   1.889       .  S
O1109      C1119   1.261       .  A
O1110      V1115   1.884       .  S
O1110      C1120   1.261       .  A
O1111      V1116   1.924       .  S
O1111      C1120   1.269       .  A
O1112      V1116   1.929       .  S
O1112      C1119   1.272       .  A
O1113      V1116   1.880       .  S
O1113      C1118   1.260       .  A
O1114      V1116   1.896       .  S
O1114      C1117   1.263       .  A
V1115      V1116   2.084       .  T
C1117      C1304   1.490       .  S
C1118      C1293   1.474       .  S
C1119      C1262   1.493       .  S
C1120      C1279   1.479       .  S
O1121      V1129   1.910       .  S
O1121      C1131   1.269       .  A
O1122      V1129   1.907       .  S
O1122      C1132   1.267       .  A
O1123      V1129   1.895       .  S
O1123      C1133   1.261       .  A
O1124      V1129   1.886       .  S
O1124      C1134   1.260       .  A
O1125      V1130   1.918       .  S
O1125      C1134   1.267       .  A
O1126      V1130   1.919       .  S
O1126      C1133   1.272       .  A
O1127      V1130   1.882       .  S
O1127      C1132   1.259       .  A
O1128      V1130   1.888       .  S
O1128      C1131   1.260       .  A
V1129      V1130   2.086       .  T
C1131      C1223   1.485       .  S
C1132      C1234   1.471       .  S
C1133      C1388   1.497       .  S
C1134      C1248   1.470       .  S
O1135      V1143   1.911       .  S
O1135      C1145   1.267       .  A
O1136      V1143   1.907       .  S
O1136      C1146   1.267       .  A
O1137      V1143   1.892       .  S
O1137      C1147   1.262       .  A
O1138      V1143   1.891       .  S
O1138      C1148   1.262       .  A
O1139      V1144   1.917       .  S
O1139      C1148   1.267       .  A
O1140      V1144   1.923       .  S
O1140      C1147   1.272       .  A
O1141      V1144   1.886       .  S
O1141      C1146   1.260       .  A
O1142      V1144   1.895       .  S
O1142      C1145   1.262       .  A
V1143      V1144   2.086       .  T
C1145      C1206   1.478       .  S
C1146      C1192   1.472       .  S
C1147      C1265   1.494       .  S
C1148      C1251   1.473       .  S
O1149      V1157   1.914       .  S
O1149      C1159   1.270       .  A
O1150      V1157   1.912       .  S
O1150      C1160   1.267       .  A
O1151      V1157   1.891       .  S
O1151      C1161   1.260       .  A
O1152      V1157   1.883       .  S
O1152      C1162   1.260       .  A
O1153      V1158   1.919       .  S
O1153      C1162   1.267       .  A
O1154      V1158   1.922       .  S
O1154      C1161   1.271       .  A
O1155      V1158   1.878       .  S
O1155      C1160   1.260       .  A
O1156      V1158   1.885       .  S
O1156      C1159   1.259       .  A
V1157      V1158   2.085       .  T
C1159      C1220   1.481       .  S
C1160      C1237   1.480       .  S
C1161      C1461   1.489       .  S
C1162      C1178   1.470       .  S
O1163      V1171   1.908       .  S
O1163      C1173   1.267       .  A
O1164      V1171   1.905       .  S
O1164      C1174   1.267       .  A
O1165      V1171   1.894       .  S
O1165      C1175   1.262       .  A
O1166      V1171   1.886       .  S
O1166      C1176   1.261       .  A
O1167      V1172   1.913       .  S
O1167      C1176   1.266       .  A
O1168      V1172   1.912       .  S
O1168      C1175   1.269       .  A
O1169      V1172   1.885       .  S
O1169      C1174   1.260       .  A
O1170      V1172   1.892       .  S
O1170      C1173   1.263       .  A
V1171      V1172   2.085       .  T
C1173      C1209   1.489       .  S
C1174      C1195   1.482       .  S
C1175      C1321   1.488       .  S
C1176      C1181   1.469       .  S
C1177      C1178   1.402       .  A
C1177      C1182   1.397       .  A
C1177      H1184   1.083       .  S
C1178      C1179   1.408       .  A
C1179      C1180   1.406       .  A
C1179      N1186   1.427       .  S
C1180      C1181   1.404       .  A
C1180      H1185   1.083       .  S
C1181      C1182   1.407       .  A
C1182      N1183   1.430       .  S
N1183      O1187   1.262       .  A
N1183      O1188   1.262       .  A
N1186      O1190   1.262       .  A
N1186      O1189   1.262       .  A
C1191      C1192   1.400       .  A
C1191      C1700   1.400       .  A
C1191      H1198   1.082       .  S
C1192      C1697   1.410       .  A
C1193      C1696   1.410   1_545  A
C1193      C1194   1.399       .  A
C1193      N1704   1.429       .  S
C1194      C1195   1.404       .  A
C1194      H1199   1.082       .  S
C1195      C1196   1.417       .  A
C1196      C1695   1.397   1_545  A
C1196      N1197   1.429       .  S
N1197      O1201   1.262       .  A
N1197      O1202   1.262       .  A
N1200      C1697   1.429       .  S
N1200      O1204   1.261       .  A
N1200      O1203   1.262       .  A
C1205      C1206   1.403       .  A
C1205      H1212   1.082       .  S
C1206      C1207   1.405       .  A
C1207      N1214   1.428       .  S
C1208      C1209   1.410   1_455  A
C1208      H1213   1.082       .  S
C1209      C1210   1.413       .  A
C1210      N1211   1.429       .  S
N1211      O1215   1.262       .  A
N1211      O1216   1.262       .  A
N1214      O1218   1.262       .  A
N1214      O1217   1.262       .  A
C1219      C1220   1.400       .  A
C1219      C1224   1.401       .  A
C1219      H1226   1.082       .  S
C1220      C1221   1.415       .  A
C1221      C1222   1.400   1_545  A
C1221      N1228   1.429       .  S
C1222      C1727   1.402       .  A
C1222      H1731   1.082       .  S
C1223      C1726   1.401       .  A
C1223      C1728   1.418       .  A
C1224      C1727   1.419   1_545  A
C1224      N1729   1.429       .  S
N1225      C1728   1.429       .  S
N1225      O1733   1.262       .  A
N1225      O1230   1.262       .  A
H1227      C1726   1.082       .  S
N1228      O1232   1.262       .  A
N1228      O1231   1.261       .  A
O1229      N1729   1.262       .  A
C1233      C1234   1.405       .  A
C1233      H1240   1.082       .  S
C1234      C1235   1.403       .  A
C1235      N1242   1.428       .  S
C1236      C1237   1.409   1_455  A
C1236      H1241   1.082       .  S
C1237      C1238   1.411       .  A
C1238      N1239   1.431       .  S
N1239      O1243   1.262       .  A
N1239      O1244   1.262       .  A
N1242      O1246   1.262       .  A
N1242      O1245   1.262       .  A
C1247      C1248   1.403       .  A
C1247      C1252   1.402       .  A
C1247      H1254   1.082       .  S
C1248      C1249   1.407       .  A
C1249      C1250   1.405       .  A
C1249      N1256   1.430       .  S
C1250      C1251   1.404       .  A
C1250      H1255   1.076       .  S
C1251      C1252   1.407       .  A
C1252      N1253   1.429       .  S
N1253      O1257   1.262       .  A
N1253      O1258   1.262       .  A
N1256      O1260   1.262       .  A
N1256      O1259   1.262       .  A
C1261      C1262   1.411       .  A
C1261      C1266   1.405       .  A
C1261      H1268   1.081       .  S
C1262      C1263   1.408       .  A
C1263      C1264   1.408       .  A
C1263      N1270   1.428       .  S
C1264      C1265   1.412       .  A
C1264      H1269   1.081       .  S
C1265      C1266   1.409       .  A
C1266      N1267   1.428       .  S
N1267      O1271   1.262       .  A
N1267      O1272   1.262       .  A
N1270      O1274   1.262       .  A
N1270      O1273   1.262       .  A
C1275      C1276   1.404       .  A
C1275      C1280   1.412       .  A
C1275      H1282   1.082       .  S
C1276      C1277   1.411       .  A
C1277      C1278   1.397       .  A
C1277      N1284   1.429       .  S
C1278      C1279   1.400       .  A
C1278      H1283   1.083       .  S
C1279      C1280   1.413       .  A
C1280      N1281   1.428       .  S
N1281      O1285   1.262       .  A
N1281      O1286   1.262       .  A
N1284      O1288   1.261       .  A
N1284      O1287   1.262       .  A
C1289      C1290   1.410       .  A
C1289      C1294   1.398   1_545  A
C1289      H1296   1.082       .  S
C1290      C1291   1.409       .  A
C1291      C1292   1.398       .  A
C1291      N1298   1.430       .  S
C1292      C1797   1.406   1_545  A
C1292      H1801   1.082       .  S
C1293      C1796   1.406       .  A
C1293      C1798   1.406       .  A
C1294      C1797   1.405       .  A
C1294      N1799   1.429       .  S
N1295      C1798   1.429       .  S
N1295      O1299   1.262       .  A
N1295      O1300   1.262       .  A
H1297      C1796   1.082       .  S
N1298      O1302   1.262       .  A
N1298      O1301   1.262       .  A
C1303      C1304   1.410       .  A
C1303      C1308   1.405       .  A
C1303      H1310   1.082       .  S
C1304      C1305   1.410       .  A
C1305      C1306   1.401       .  A
C1305      N1312   1.429       .  S
C1306      C1307   1.408       .  A
C1306      H1311   1.082       .  S
C1307      C1308   1.410       .  A
C1308      N1309   1.429       .  S
N1309      O1313   1.262       .  A
N1309      O1314   1.262       .  A
N1312      O1316   1.262       .  A
N1312      O1315   1.262       .  A
C1317      C1318   1.403       .  A
C1317      C1322   1.404       .  A
C1317      H1324   1.082       .  S
C1318      C1319   1.421       .  A
C1319      C1320   1.403       .  A
C1319      N1326   1.432       .  S
C1320      C1321   1.400       .  A
C1320      H1325   1.082       .  S
C1321      C1322   1.416       .  A
C1322      N1323   1.429       .  S
N1323      O1327   1.262       .  A
N1323      O1328   1.262       .  A
N1326      O1330   1.262       .  A
N1326      O1329   1.262       .  A
C1331      C1332   1.410       .  A
C1331      C1336   1.399   1_545  A
C1331      H1338   1.082       .  S
C1332      C1333   1.410       .  A
C1333      C1334   1.401       .  A
C1333      N1340   1.429       .  S
C1334      C1839   1.407   1_545  A
C1334      H1843   1.082       .  S
C1335      C1838   1.406       .  A
C1335      C1840   1.406       .  A
C1336      C1839   1.406       .  A
C1336      N1841   1.429       .  S
N1337      C1840   1.429       .  S
N1337      O1341   1.262       .  A
N1337      O1342   1.262       .  A
H1339      C1838   1.083       .  S
N1340      O1344   1.262       .  A
N1340      O1343   1.262       .  A
C1345      C1346   1.408       .  A
C1345      C1350   1.393       .  A
C1345      H1352   1.082       .  S
C1346      C1347   1.407       .  A
C1347      C1348   1.396       .  A
C1347      N1354   1.429       .  S
C1348      C1349   1.407       .  A
C1348      H1353   1.082       .  S
C1349      C1350   1.404       .  A
C1350      N1351   1.430       .  S
N1351      O1355   1.262       .  A
N1351      O1356   1.262       .  A
N1354      O1358   1.261       .  A
N1354      O1357   1.262       .  A
C1359      C1360   1.403       .  A
C1359      C1364   1.408       .  A
C1359      H1366   1.083       .  S
C1360      C1361   1.410       .  A
C1361      C1362   1.399       .  A
C1361      N1368   1.429       .  S
C1362      C1363   1.400       .  A
C1362      H1367   1.083       .  S
C1363      C1364   1.412       .  A
C1364      N1365   1.429       .  S
N1365      O1369   1.262       .  A
N1365      O1370   1.262       .  A
N1368      O1372   1.262       .  A
N1368      O1371   1.262       .  A
C1373      C1374   1.416       .  A
C1373      C1378   1.409       .  A
C1373      H1380   1.074       .  S
C1374      C1375   1.412       .  A
C1375      C1376   1.405       .  A
C1375      N1382   1.429       .  S
C1376      C1377   1.406       .  A
C1376      H1381   1.065       .  S
C1377      C1378   1.404       .  A
C1378      N1379   1.429       .  S
N1379      O1383   1.262       .  A
N1379      O1384   1.262       .  A
N1382      O1386   1.262       .  A
N1382      O1385   1.262       .  A
C1387      C1388   1.403       .  A
C1387      C1392   1.402       .  A
C1387      H1394   1.082       .  S
C1388      C1389   1.422       .  A
C1389      C1390   1.409       .  A
C1389      N1396   1.430       .  S
C1390      C1391   1.402       .  A
C1390      H1395   1.082       .  S
C1391      C1392   1.413       .  A
C1392      N1393   1.428       .  S
N1393      O1397   1.261       .  A
N1393      O1398   1.262       .  A
N1396      O1400   1.262       .  A
N1396      O1399   1.262       .  A
C1401      C1402   1.400       .  A
C1401      C1406   1.403   1_554  A
C1401      H1408   1.083       .  S
C1402      C1403   1.411       .  A
C1403      C1404   1.405   1_554  A
C1403      N1410   1.429       .  S
C1404      C1405   1.401       .  A
C1404      H1409   1.083       .  S
C1405      C1406   1.412       .  A
C1406      N1407   1.429       .  S
N1407      O1411   1.262       .  A
N1407      O1412   1.261       .  A
N1410      O1414   1.262       .  A
N1410      O1413   1.262       .  A
C1415      C1416   1.401       .  A
C1415      H1422   1.084       .  S
C1416      C1417   1.415       .  A
C1417      N1424   1.431       .  S
C1418      C1419   1.404       .  A
C1418      H1423   1.084       .  S
C1419      C1420   1.418   1_655  A
C1420      N1421   1.429       .  S
N1421      O1425   1.262       .  A
N1421      O1426   1.262       .  A
N1424      O1428   1.262       .  A
N1424      O1427   1.262       .  A
C1429      C1430   1.402       .  A
C1429      C1434   1.397       .  A
C1429      H1436   1.084       .  S
C1430      C1431   1.417       .  A
C1431      C1432   1.395       .  A
C1431      N1438   1.430       .  S
C1432      C1433   1.397       .  A
C1432      H1437   1.084       .  S
C1433      C1434   1.411       .  A
C1434      N1435   1.429       .  S
N1435      O1439   1.262       .  A
N1435      O1440   1.262       .  A
N1438      O1442   1.261       .  A
N1438      O1441   1.262       .  A
C1443      C1444   1.405       .  A
C1443      C1448   1.405       .  A
C1443      H1450   1.082       .  S
C1444      C1445   1.422       .  A
C1445      C1446   1.408       .  A
C1445      N1452   1.428       .  S
C1446      C1447   1.400       .  A
C1446      H1451   1.082       .  S
C1447      C1448   1.414       .  A
C1448      N1449   1.428       .  S
N1449      O1453   1.261       .  A
N1449      O1454   1.262       .  A
N1452      O1456   1.262       .  A
N1452      O1455   1.262       .  A
C1457      C1458   1.402       .  A
C1457      C1462   1.402       .  A
C1457      H1464   1.082       .  S
C1458      C1459   1.423       .  A
C1459      C1460   1.408       .  A
C1459      N1466   1.432       .  S
C1460      C1461   1.401       .  A
C1460      H1465   1.082       .  S
C1461      C1462   1.415       .  A
C1462      N1463   1.429       .  S
N1463      O1467   1.261       .  A
N1463      O1468   1.262       .  A
N1466      O1470   1.262       .  A
N1466      O1469   1.262       .  A
C1471      C1472   1.405   1_455  A
C1471      H1478   1.082       .  S
C1472      C1473   1.403       .  A
C1473      N1480   1.428       .  S
C1474      C1475   1.408       .  A
C1474      H1479   1.082       .  S
C1475      C1476   1.412       .  A
C1476      N1477   1.434       .  S
N1477      O1481   1.262       .  A
N1477      O1482   1.262       .  A
N1480      O1484   1.262       .  A
N1480      O1483   1.262       .  A
C1485      C1486   1.403       .  A
C1485      C1490   1.402       .  A
C1485      H1492   1.082       .  S
C1486      C1487   1.417       .  A
C1487      C1488   1.401       .  A
C1487      N1494   1.429       .  S
C1488      C1489   1.401       .  A
C1488      H1493   1.082       .  S
C1489      C1490   1.416       .  A
C1490      N1491   1.430       .  S
N1491      O1495   1.262       .  A
N1491      O1496   1.262       .  A
N1494      O1498   1.262       .  A
N1494      O1497   1.262       .  A
C1499      C1500   1.406       .  A
C1499      C1504   1.407   1_554  A
C1499      H1506   1.083       .  S
C1500      C1501   1.407       .  A
C1501      C1502   1.398   1_554  A
C1501      N1508   1.430       .  S
C1502      C1503   1.403       .  A
C1502      H1507   1.083       .  S
C1503      C1504   1.407       .  A
C1504      N1505   1.428       .  S
N1505      O1509   1.262       .  A
N1505      O1510   1.262       .  A
N1508      O1512   1.262       .  A
N1508      O1511   1.262       .  A
O1513      V1521   1.912       .  S
O1513      C1523   1.269       .  A
O1514      V1521   1.908       .  S
O1514      C1524   1.267       .  A
O1515      V1521   1.899       .  S
O1515      C1525   1.262       .  A
O1516      V1521   1.889       .  S
O1516      C1526   1.261       .  A
O1517      V1522   1.915       .  S
O1517      C1526   1.266       .  A
O1518      V1522   1.918       .  S
O1518      C1525   1.272       .  A
O1519      V1522   1.880       .  S
O1519      C1524   1.260       .  A
O1520      V1522   1.890       .  S
O1520      C1523   1.261       .  A
V1521      V1522   2.085       .  T
C1523      C1993   1.486       .  S
C1524      C1976   1.472       .  S
C1525      C1962   1.499       .  S
C1526      C2004   1.472       .  S
O1527      V1535   1.912       .  S
O1527      C1537   1.269       .  A
O1528      V1535   1.905       .  S
O1528      C1538   1.267       .  A
O1529      V1535   1.895       .  S
O1529      C1539   1.261       .  A
O1530      V1535   1.886       .  S
O1530      C1540   1.261       .  A
O1531      V1536   1.918       .  S
O1531      C1540   1.267       .  A
O1532      V1536   1.920       .  S
O1532      C1539   1.271       .  A
O1533      V1536   1.883       .  S
O1533      C1538   1.259       .  A
O1534      V1536   1.891       .  S
O1534      C1537   1.262       .  A
V1535      V1536   2.086       .  T
C1537      C1923   1.490       .  S
C1538      C1937   1.469       .  S
C1539      C1951   1.493       .  S
C1540      C2007   1.472       .  S
O1541      V1549   1.914       .  S
O1541      C1551   1.270       .  A
O1542      V1549   1.911       .  S
O1542      C1552   1.267       .  A
O1543      V1549   1.893       .  S
O1543      C1553   1.261       .  A
O1544      V1549   1.887       .  S
O1544      C1554   1.260       .  A
O1545      V1550   1.923       .  S
O1545      C1554   1.268       .  A
O1546      V1550   1.926       .  S
O1546      C1553   1.272       .  A
O1547      V1550   1.880       .  S
O1547      C1552   1.261       .  A
O1548      V1550   1.890       .  S
O1548      C1551   1.261       .  A
V1549      V1550   2.084       .  T
C1551      C1990   1.488       .  S
C1552      C1979   1.482       .  S
C1553      C1895   1.492       .  S
C1554      C1906   1.476       .  S
O1555      V1563   1.913       .  S
O1555      C1565   1.268       .  A
O1556      V1563   1.904       .  S
O1556      C1566   1.267       .  A
O1557      V1563   1.891       .  S
O1557      C1567   1.261       .  A
O1558      V1563   1.889       .  S
O1558      C1568   1.261       .  A
O1559      V1564   1.923       .  S
O1559      C1568   1.269       .  A
O1560      V1564   1.924       .  S
O1560      C1567   1.272       .  A
O1561      V1564   1.881       .  S
O1561      C1566   1.259       .  A
O1562      V1564   1.889       .  S
O1562      C1565   1.261       .  A
V1563      V1564   2.085       .  T
C1565      C1920   1.479       .  S
C1566      C1934   1.477       .  S
C1567      C1878   1.494       .  S
C1568      C1909   1.477       .  S
O1569      V1577   1.910       .  S
O1569      C1579   1.268       .  A
O1570      V1577   1.905       .  S
O1570      C1580   1.266       .  A
O1571      V1577   1.892       .  S
O1571      C1581   1.261       .  A
O1572      V1577   1.886       .  S
O1572      C1582   1.260       .  A
O1573      V1578   1.924       .  S
O1573      C1582   1.269       .  A
O1574      V1578   1.925       .  S
O1574      C1581   1.272       .  A
O1575      V1578   1.874       .  S
O1575      C1580   1.259       .  A
O1576      V1578   1.885       .  S
O1576      C1579   1.261       .  A
V1577      V1578   2.085       .  T
C1579      C1836   1.485       .  S
C1580      C1850   1.475       .  S
C1581      C1948   1.495       .  S
C1582      C1864   1.475       .  S
O1583      V1591   1.917       .  S
O1583      C1593   1.270       .  A
O1584      V1591   1.912       .  S
O1584      C1594   1.268       .  A
O1585      V1591   1.896       .  S
O1585      C1595   1.261       .  A
O1586      V1591   1.891       .  S
O1586      C1596   1.261       .  A
O1587      V1592   1.919       .  S
O1587      C1596   1.268       .  A
O1588      V1592   1.922       .  S
O1588      C1595   1.271       .  A
O1589      V1592   1.879       .  S
O1589      C1594   1.260       .  A
O1590      V1592   1.889       .  S
O1590      C1593   1.262       .  A
V1591      V1592   2.084       .  T
C1593      C1811   1.491       .  S
C1594      C1794   1.478       .  S
C1595      C1822   1.495       .  S
C1596      C1867   1.476       .  S
O1597      V1605   1.911       .  S
O1597      C1607   1.268       .  A
O1598      V1605   1.903       .  S
O1598      C1608   1.266       .  A
O1599      V1605   1.889       .  S
O1599      C1609   1.261       .  A
O1600      V1605   1.889       .  S
O1600      C1610   1.260       .  A
O1601      V1606   1.923       .  S
O1601      C1610   1.269       .  A
O1602      V1606   1.926       .  S
O1602      C1609   1.272       .  A
O1603      V1606   1.874       .  S
O1603      C1608   1.258       .  A
O1604      V1606   1.885       .  S
O1604      C1607   1.260       .  A
V1605      V1606   2.087       .  T
C1607      C1839   1.478       .  S
C1608      C1853   1.462       .  S
C1609      C1881   1.493       .  S
C1610      C1780   1.477       .  S
O1611      V1619   1.916       .  S
O1611      C1621   1.269       .  A
O1612      V1619   1.910       .  S
O1612      C1622   1.268       .  A
O1613      V1619   1.893       .  S
O1613      C1623   1.262       .  A
O1614      V1619   1.889       .  S
O1614      C1624   1.261       .  A
O1615      V1620   1.921       .  S
O1615      C1624   1.268       .  A
O1616      V1620   1.924       .  S
O1616      C1623   1.272       .  A
O1617      V1620   1.878       .  S
O1617      C1622   1.259       .  A
O1618      V1620   1.893       .  S
O1618      C1621   1.262       .  A
V1619      V1620   2.085       .  T
C1621      C1808   1.490       .  S
C1622      C1797   1.474       .  S
C1623      C1766   1.495       .  S
C1624      C1783   1.477       .  S
O1625      V1633   1.913       .  S
O1625      C1635   1.270       .  A
O1626      V1633   1.909       .  S
O1626      C1636   1.268       .  A
O1627      V1633   1.896       .  S
O1627      C1637   1.261       .  A
O1628      V1633   1.888       .  S
O1628      C1638   1.260       .  A
O1629      V1634   1.920       .  S
O1629      C1638   1.268       .  A
O1630      V1634   1.921       .  S
O1630      C1637   1.273       .  A
O1631      V1634   1.879       .  S
O1631      C1636   1.259       .  A
O1632      V1634   1.886       .  S
O1632      C1635   1.260       .  A
V1633      V1634   2.086       .  T
C1635      C1727   1.487       .  S
C1636      C1738   1.470       .  S
C1637      C1892   1.498       .  S
C1638      C1752   1.474       .  S
O1639      V1647   1.908       .  S
O1639      C1649   1.267       .  A
O1640      V1647   1.904       .  S
O1640      C1650   1.267       .  A
O1641      V1647   1.889       .  S
O1641      C1651   1.261       .  A
O1642      V1647   1.889       .  S
O1642      C1652   1.261       .  A
O1643      V1648   1.921       .  S
O1643      C1652   1.268       .  A
O1644      V1648   1.929       .  S
O1644      C1651   1.273       .  A
O1645      V1648   1.887       .  S
O1645      C1650   1.260       .  A
O1646      V1648   1.892       .  S
O1646      C1649   1.262       .  A
V1647      V1648   2.087       .  T
C1649      C1710   1.476       .  S
C1650      C1696   1.470       .  S
C1651      C1769   1.494       .  S
C1652      C1755   1.476       .  S
O1653      V1661   1.912       .  S
O1653      C1663   1.269       .  A
O1654      V1661   1.907       .  S
O1654      C1664   1.267       .  A
O1655      V1661   1.892       .  S
O1655      C1665   1.261       .  A
O1656      V1661   1.886       .  S
O1656      C1666   1.260       .  A
O1657      V1662   1.921       .  S
O1657      C1666   1.268       .  A
O1658      V1662   1.926       .  S
O1658      C1665   1.272       .  A
O1659      V1662   1.882       .  S
O1659      C1664   1.261       .  A
O1660      V1662   1.886       .  S
O1660      C1663   1.260       .  A
V1661      V1662   2.085       .  T
C1663      C1724   1.481       .  S
C1664      C1741   1.479       .  S
C1665      C1965   1.494       .  S
C1666      C1682   1.473       .  S
O1667      V1675   1.906       .  S
O1667      C1677   1.267       .  A
O1668      V1675   1.902       .  S
O1668      C1678   1.267       .  A
O1669      V1675   1.898       .  S
O1669      C1679   1.263       .  A
O1670      V1675   1.889       .  S
O1670      C1680   1.261       .  A
O1671      V1676   1.916       .  S
O1671      C1680   1.266       .  A
O1672      V1676   1.917       .  S
O1672      C1679   1.270       .  A
O1673      V1676   1.891       .  S
O1673      C1678   1.261       .  A
O1674      V1676   1.896       .  S
O1674      C1677   1.264       .  A
V1675      V1676   2.084       .  T
C1677      C1713   1.490       .  S
C1678      C1699   1.482       .  S
C1679      C1825   1.495       .  S
C1680      C1685   1.472       .  S
C1681      C1682   1.403       .  A
C1681      C1686   1.400       .  A
C1681      H1688   1.083       .  S
C1682      C1683   1.408       .  A
C1683      C1684   1.406       .  A
C1683      N1690   1.427       .  S
C1684      C1685   1.403       .  A
C1684      H1689   1.083       .  S
C1685      C1686   1.407       .  A
C1686      N1687   1.429       .  S
N1687      O1691   1.262       .  A
N1687      O1692   1.262       .  A
N1690      O1694   1.262       .  A
N1690      O1693   1.262       .  A
C1695      C1696   1.398       .  A
C1695      H1702   1.083       .  S
C1697      C1698   1.397       .  A
C1698      C1699   1.404       .  A
C1698      H1703   1.082       .  S
C1699      C1700   1.417       .  A
C1700      N1701   1.429       .  S
N1701      O1705   1.262       .  A
N1701      O1706   1.262       .  A
N1704      O1708   1.261       .  A
N1704      O1707   1.262       .  A
C1709      C1710   1.403       .  A
C1709      H1716   1.082       .  S
C1710      C1711   1.406       .  A
C1711      N1718   1.429       .  S
C1712      C1713   1.411   1_455  A
C1712      H1717   1.082       .  S
C1713      C1714   1.415       .  A
C1714      N1715   1.429       .  S
N1715      O1719   1.262       .  A
N1715      O1720   1.262       .  A
N1718      O1722   1.262       .  A
N1718      O1721   1.262       .  A
C1723      C1724   1.401       .  A
C1723      C1728   1.401       .  A
C1723      H1730   1.082       .  S
C1724      C1725   1.415       .  A
C1725      C1726   1.400       .  A
C1725      N1732   1.429       .  S
N1729      O1734   1.262       .  A
N1732      O1736   1.262       .  A
N1732      O1735   1.261       .  A
C1737      C1738   1.405       .  A
C1737      H1744   1.082       .  S
C1738      C1739   1.402       .  A
C1739      N1746   1.428       .  S
C1740      C1741   1.410   1_455  A
C1740      H1745   1.082       .  S
C1741      C1742   1.411       .  A
C1742      N1743   1.431       .  S
N1743      O1747   1.262       .  A
N1743      O1748   1.262       .  A
N1746      O1750   1.262       .  A
N1746      O1749   1.262       .  A
C1751      C1752   1.404       .  A
C1751      C1756   1.404       .  A
C1751      H1758   1.082       .  S
C1752      C1753   1.408       .  A
C1753      C1754   1.405       .  A
C1753      N1760   1.429       .  S
C1754      C1755   1.405       .  A
C1754      H1759   1.076       .  S
C1755      C1756   1.408       .  A
C1756      N1757   1.429       .  S
N1757      O1761   1.262       .  A
N1757      O1762   1.262       .  A
N1760      O1764   1.262       .  A
N1760      O1763   1.262   1_565  A
C1765      C1766   1.412       .  A
C1765      C1770   1.407       .  A
C1765      H1772   1.081       .  S
C1766      C1767   1.409       .  A
C1767      C1768   1.406       .  A
C1767      N1774   1.428       .  S
C1768      C1769   1.411       .  A
C1768      H1773   1.082       .  S
C1769      C1770   1.409       .  A
C1770      N1771   1.428       .  S
N1771      O1775   1.262       .  A
N1771      O1776   1.262       .  A
N1774      O1778   1.262       .  A
N1774      O1777   1.262       .  A
C1779      C1780   1.402       .  A
C1779      C1784   1.408       .  A
C1779      H1786   1.082       .  S
C1780      C1781   1.411       .  A
C1781      C1782   1.401       .  A
C1781      N1788   1.429       .  S
C1782      C1783   1.400       .  A
C1782      H1787   1.083       .  S
C1783      C1784   1.412       .  A
C1784      N1785   1.428       .  S
N1785      O1789   1.262       .  A
N1785      O1790   1.262       .  A
N1788      O1792   1.261       .  A
N1788      O1791   1.262       .  A
C1793      C1794   1.409       .  A
C1793      C1798   1.397       .  A
C1793      H1800   1.082       .  S
C1794      C1795   1.409       .  A
C1795      C1796   1.399       .  A
C1795      N1802   1.430       .  S
N1799      O1803   1.262       .  A
N1799      O1804   1.262       .  A
N1802      O1806   1.261       .  A
N1802      O1805   1.262       .  A
C1807      C1808   1.410       .  A
C1807      C1812   1.404       .  A
C1807      H1814   1.082       .  S
C1808      C1809   1.409       .  A
C1809      C1810   1.403       .  A
C1809      N1816   1.428       .  S
C1810      C1811   1.410       .  A
C1810      H1815   1.082       .  S
C1811      C1812   1.410       .  A
C1812      N1813   1.429       .  S
N1813      O1817   1.262       .  A
N1813      O1818   1.262       .  A
N1816      O1820   1.262       .  A
N1816      O1819   1.262       .  A
C1821      C1822   1.404       .  A
C1821      C1826   1.407       .  A
C1821      H1828   1.082       .  S
C1822      C1823   1.420       .  A
C1823      C1824   1.406       .  A
C1823      N1830   1.431       .  S
C1824      C1825   1.402       .  A
C1824      H1829   1.082       .  S
C1825      C1826   1.418       .  A
C1826      N1827   1.429       .  S
N1827      O1831   1.262       .  A
N1827      O1832   1.262       .  A
N1830      O1834   1.262       .  A
N1830      O1833   1.262       .  A
C1835      C1836   1.410       .  A
C1835      C1840   1.400       .  A
C1835      H1842   1.082       .  S
C1836      C1837   1.410       .  A
C1837      C1838   1.399       .  A
C1837      N1844   1.429       .  S
N1841      O1845   1.262       .  A
N1841      O1846   1.262       .  A
N1844      O1848   1.262       .  A
N1844      O1847   1.262       .  A
C1849      C1850   1.410       .  A
C1849      C1854   1.394       .  A
C1849      H1856   1.082       .  S
C1850      C1851   1.410       .  A
C1851      C1852   1.395       .  A
C1851      N1858   1.429       .  S
C1852      C1853   1.403       .  A
C1852      H1857   1.082       .  S
C1853      C1854   1.402       .  A
C1854      N1855   1.429       .  S
N1855      O1859   1.262       .  A
N1855      O1860   1.262       .  A
N1858      O1862   1.261       .  A
N1858      O1861   1.262       .  A
C1863      C1864   1.402       .  A
C1863      C1868   1.406       .  A
C1863      H1870   1.083       .  S
C1864      C1865   1.411       .  A
C1865      C1866   1.402       .  A
C1865      N1872   1.429       .  S
C1866      C1867   1.400       .  A
C1866      H1871   1.083       .  S
C1867      C1868   1.412       .  A
C1868      N1869   1.429       .  S
N1869      O1873   1.262       .  A
N1869      O1874   1.262       .  A
N1872      O1876   1.262       .  A
N1872      O1875   1.261       .  A
C1877      C1878   1.412       .  A
C1877      C1882   1.407       .  A
C1877      H1884   1.082       .  S
C1878      C1879   1.409       .  A
C1879      C1880   1.405       .  A
C1879      N1886   1.429       .  S
C1880      C1881   1.411       .  A
C1880      H1885   1.082       .  S
C1881      C1882   1.408       .  A
C1882      N1883   1.428       .  S
N1883      O1887   1.262       .  A
N1883      O1888   1.262       .  A
N1886      O1890   1.262       .  A
N1886      O1889   1.262       .  A
C1891      C1892   1.402       .  A
C1891      C1896   1.403       .  A
C1891      H1898   1.082       .  S
C1892      C1893   1.423       .  A
C1893      C1894   1.410       .  A
C1893      N1900   1.431       .  S
C1894      C1895   1.402       .  A
C1894      H1899   1.082       .  S
C1895      C1896   1.415       .  A
C1896      N1897   1.428       .  S
N1897      O1901   1.261       .  A
N1897      O1902   1.262       .  A
N1900      O1904   1.262       .  A
N1900      O1903   1.262       .  A
C1905      C1906   1.401       .  A
C1905      C1910   1.402   1_554  A
C1905      H1912   1.080       .  S
C1906      C1907   1.410       .  A
C1907      C1908   1.407   1_554  A
C1907      N1914   1.429       .  S
C1908      C1909   1.403       .  A
C1908      H1913   1.075       .  S
C1909      C1910   1.411       .  A
C1910      N1911   1.429       .  S
N1911      O1915   1.262       .  A
N1911      O1916   1.261       .  A
N1914      O1918   1.262       .  A
N1914      O1917   1.262       .  A
C1919      C1920   1.400       .  A
C1919      H1926   1.084       .  S
C1920      C1921   1.412       .  A
C1921      N1928   1.431       .  S
C1922      C1923   1.405       .  A
C1922      H1927   1.084       .  S
C1923      C1924   1.418   1_655  A
C1924      N1925   1.429       .  S
N1925      O1929   1.262       .  A
N1925      O1930   1.262       .  A
N1928      O1932   1.262       .  A
N1928      O1931   1.262       .  A
C1933      C1934   1.402       .  A
C1933      C1938   1.397       .  A
C1933      H1940   1.083       .  S
C1934      C1935   1.417       .  A
C1935      C1936   1.396       .  A
C1935      N1942   1.430       .  S
C1936      C1937   1.398       .  A
C1936      H1941   1.082       .  S
C1937      C1938   1.411       .  A
C1938      N1939   1.429       .  S
N1939      O1943   1.262       .  A
N1939      O1944   1.262       .  A
N1942      O1946   1.262       .  A
N1942      O1945   1.262       .  A
C1947      C1948   1.403       .  A
C1947      C1952   1.408       .  A
C1947      H1954   1.082       .  S
C1948      C1949   1.419       .  A
C1949      C1950   1.404       .  A
C1949      N1956   1.428       .  S
C1950      C1951   1.400       .  A
C1950      H1955   1.082       .  S
C1951      C1952   1.419       .  A
C1952      N1953   1.429       .  S
N1953      O1957   1.262       .  A
N1953      O1958   1.262       .  A
N1956      O1960   1.262       .  A
N1956      O1959   1.261       .  A
C1961      C1962   1.403       .  A
C1961      C1966   1.403       .  A
C1961      H1968   1.082       .  S
C1962      C1963   1.423       .  A
C1963      C1964   1.410       .  A
C1963      N1970   1.432       .  S
C1964      C1965   1.402       .  A
C1964      H1969   1.082       .  S
C1965      C1966   1.416       .  A
C1966      N1967   1.428       .  S
N1967      O1971   1.261       .  A
N1967      O1972   1.262       .  A
N1970      O1974   1.262       .  A
N1970      O1973   1.262       .  A
C1975      C1976   1.407   1_455  A
C1975      H1982   1.082       .  S
C1976      C1977   1.405       .  A
C1977      N1984   1.429       .  S
C1978      C1979   1.409       .  A
C1978      H1983   1.082       .  S
C1979      C1980   1.413       .  A
C1980      N1981   1.433       .  S
N1981      O1985   1.262       .  A
N1981      O1986   1.262       .  A
N1984      O1988   1.262       .  A
N1984      O1987   1.262       .  A
C1989      C1990   1.402       .  A
C1989      C1994   1.402       .  A
C1989      H1996   1.082       .  S
C1990      C1991   1.418       .  A
C1991      C1992   1.402       .  A
C1991      N1998   1.429       .  S
C1992      C1993   1.401       .  A
C1992      H1997   1.082       .  S
C1993      C1994   1.417       .  A
C1994      N1995   1.429       .  S
N1995      O1999   1.262       .  A
N1995      O2000   1.262       .  A
N1998      O2002   1.262       .  A
N1998      O2001   1.262       .  A
C2003      C2004   1.405       .  A
C2003      C2008   1.406   1_554  A
C2003      H2010   1.083       .  S
C2004      C2005   1.407       .  A
C2005      C2006   1.399   1_554  A
C2005      N2012   1.430       .  S
C2006      C2007   1.403       .  A
C2006      H2011   1.083       .  S
C2007      C2008   1.407       .  A
C2008      N2009   1.428       .  S
N2009      O2013   1.262       .  A
N2009      O2014   1.262       .  A
N2012      O2016   1.262       .  A
N2012      O2015   1.262       .  A
