geometry optimzed in LAMMPS
_audit_creation_date              2020-12-01 
_audit_creation_method            'lammps2cif' 
_symmetry_space_group_name_H-M    'P1' 
_symmetry_Int_Tables_number       1 
_symmetry_cell_setting            triclinic 
loop_ 
_symmetry_equiv_pos_as_xyz 
  x,y,z 
_cell_length_a                    36.51774918 
_cell_length_b                    36.68407843196413 
_cell_length_c                    46.24522068709518 
_cell_angle_alpha                 90.45542786771804 
_cell_angle_beta                  89.19111705241161 
_cell_angle_gamma                 90.17699364753109 
loop_ 
_atom_site_label 
_atom_site_type_symbol 
_atom_site_fract_x 
_atom_site_fract_y 
_atom_site_fract_z 
_atom_site_charge 
In1        In  0.49364984  0.17145740  0.42952095     1.36900
C2          C  0.03410519  0.10277409  0.42156507     0.79500
O3          O  0.44702199  0.13785798  0.44496444    -0.59000
O4          O  0.43673841  0.17848291  0.41304180    -0.49900
C5          C  0.49270443  0.21878463  0.47280064     0.72100
O6          O  0.01517695  0.16572072  0.47825491    -0.44700
C7          C  0.02560807  0.20239965  0.39008765     0.76900
O8          O  0.04814414  0.13158508  0.43184618    -0.56600
O9          O  0.01441525  0.21534148  0.41380817    -0.46700
O10         O  0.50389336  0.13047501  0.39587739    -0.53000
C11         C  0.42427026  0.15269585  0.42846284     0.87000
O12         O  0.47689375  0.22446229  0.44914149    -0.54900
O13         O  0.01767536  0.16936009  0.38624510    -0.58200
In14       In  0.27167346  0.07068598  0.42087503     1.36900
C15         C  0.25123867  0.13041011  0.39435258     0.79500
O16         O  0.31350660  0.10846828  0.43889907    -0.59000
O17         O  0.33188993  0.06300328  0.41356664    -0.49900
C18         C  0.25699726  0.03139404  0.46801604     0.72100
O19         O  0.24415982  0.06315923  0.46482881    -0.44700
C20         C  0.23580793  0.03212189  0.38239792     0.76900
O21         O  0.24167829  0.12457616  0.42048393    -0.56600
O22         O  0.26983565  0.02774820  0.38587932    -0.46700
O23         O  0.27198766  0.10668690  0.38296738    -0.53000
C24         C  0.34012310  0.09159323  0.42748385     0.87000
O25         O  0.27723592  0.02053742  0.44745379    -0.54900
O26         O  0.22053545  0.05482853  0.39925574    -0.58200
In27       In  0.24966873  0.42756358  0.07380564     1.36900
C28         C  0.27286647  0.36390057  0.09219748     0.79500
O29         O  0.30558922  0.44925622  0.07894945    -0.59000
O30         O  0.26631065  0.46119487  0.11247066    -0.49900
C31         C  0.25493021  0.46800933  0.02670117     0.72100
O32         O  0.26610359  0.43536414  0.02731586    -0.44700
C33         C  0.17942141  0.41102571  0.07878058     0.76900
O34         O  0.27302768  0.37116902  0.06542072    -0.56600
O35         O  0.19288740  0.43859103  0.09145892    -0.46700
O36         O  0.26176924  0.38933132  0.10858631    -0.53000
C37         C  0.29891300  0.46442315  0.10299719     0.87000
O38         O  0.23899788  0.47896436  0.04957021    -0.54900
O39         O  0.20138227  0.39366039  0.06258619    -0.58200
In40       In  0.02590709  0.33046327  0.09572122     1.36900
C41         C  0.51173556  0.38892133  0.11597022     0.79500
O42         O  0.46892367  0.31662610  0.09112415    -0.59000
O43         O  0.01931015  0.28458915  0.12757452    -0.49900
C44         C  0.01078650  0.29344231  0.04746122     0.72100
O45         O  0.99868229  0.32536277  0.05212129    -0.44700
C46         C  0.09456765  0.35107062  0.08750441     0.76900
O47         O  0.50637083  0.38565570  0.08885824    -0.56600
O48         O  0.08623110  0.32323054  0.10226710    -0.46700
O49         O  0.02671733  0.36341773  0.13585702    -0.53000
C50         C  0.47083362  0.29869943  0.11434646     0.87000
O51         O  0.03113910  0.28142437  0.06699792    -0.54900
O52         O  0.06793581  0.36740785  0.07638108    -0.58200
In53       In  0.16909077  0.25740000  0.32896664     1.36900
C54         C  0.10443172  0.22727187  0.34018294     0.79500
O55         O  0.19638248  0.20583131  0.34081970    -0.59000
O56         O  0.19274069  0.24709354  0.37325664    -0.49900
C57         C  0.21864364  0.25785890  0.28604660     0.72100
O58         O  0.18769558  0.24248608  0.28334896    -0.44700
C59         C  0.14757529  0.32616958  0.32934237     0.76900
O60         O  0.12200821  0.21978841  0.31703200    -0.56600
O61         O  0.17411285  0.31533469  0.34430490    -0.46700
O62         O  0.11957236  0.25052512  0.35632878    -0.53000
C63         C  0.20273400  0.21512241  0.36656240     0.87000
O64         O  0.22315503  0.27394713  0.30993793    -0.54900
O65         O  0.13332004  0.30224173  0.31321915    -0.58200
In66       In  0.06816568  0.47878271  0.34210792     1.36900
C67         C  0.15575623  0.01216047  0.33624776     0.79500
O68         O  0.08238189  0.03484281  0.35899483    -0.59000
O69         O  0.02324589  0.49118565  0.37468919    -0.49900
C70         C  0.03209618  0.49447930  0.29459219     0.72100
O71         O  0.07574936  0.00538622  0.28566435    -0.44700
C72         C  0.08556276  0.40953097  0.33506549     0.76900
O73         O  0.13239700  0.02764480  0.32062306    -0.56600
O74         O  0.05783711  0.41908695  0.35012936    -0.46700
O75         O  0.10112901  0.47704977  0.38159263    -0.53000
C76         C  0.05872289  0.02088969  0.37555435     0.87000
O77         O  0.01955799  0.47354890  0.31388670    -0.54900
O78         O  0.10259890  0.43515856  0.32269214    -0.58200
In79       In  0.41775657  0.01358973  0.18467653     1.36900
C80         C  0.36752028  0.49533671  0.15915570     0.79500
O81         O  0.39389118  0.05957315  0.20968071    -0.59000
O82         O  0.41461758  0.06981486  0.16676566    -0.49900
C83         C  0.46995747  0.01071997  0.22328550     0.72100
O84         O  0.43511446  0.49740226  0.22420331    -0.44700
C85         C  0.46920233  0.47781967  0.14325218     0.76900
O86         O  0.37733908  0.48859825  0.18471746    -0.56600
O87         O  0.45028537  0.99449146  0.14552511    -0.46700
O88         O  0.37529170  0.00892994  0.15221971    -0.53000
C89         C  0.39804100  0.08188477  0.18918362     0.87000
O90         O  0.47370483  0.02773345  0.19968393    -0.54900
O91         O  0.45351260  0.46645748  0.16591984    -0.58200
In92       In  0.32838886  0.23909754  0.17669590     1.36900
C93         C  0.39492892  0.26240699  0.16406386     0.79500
O94         O  0.35635906  0.19116250  0.19443611    -0.59000
O95         O  0.32856585  0.18476259  0.15418691    -0.49900
C96         C  0.27648448  0.23711583  0.21738641     0.72100
O97         O  0.30761941  0.25154363  0.22163455    -0.44700
C98         C  0.29977488  0.29284207  0.14777719     0.76900
O99         O  0.38280895  0.26341420  0.18995794    -0.56600
O100        O  0.29995760  0.26067319  0.13738110    -0.46700
O101        O  0.37316540  0.24914606  0.14577003    -0.53000
C102        C  0.34895799  0.17077978  0.17310673     0.87000
O103        O  0.27267039  0.22250886  0.19272810    -0.54900
O104        O  0.31293712  0.29646827  0.17271691    -0.58200
C105        C  0.36426564  0.13384569  0.17010879    -0.14500
C106        C  0.38354918  0.11900114  0.19150816    -0.29700
H107        H  0.35981765  0.11870670  0.15017540     0.14500
H108        H  0.38591251  0.13304938  0.21216271     0.15100
C109        C  0.50073461  0.00716344  0.24351341    -0.14500
C110        C  0.01066316  0.50458302  0.26907694    -0.29700
H111        H  0.47544381  0.48459817  0.27036284     0.14500
H112        H  0.02763339  0.01383032  0.24327046     0.15100
C113        C  0.24823067  0.25706088  0.26378549    -0.14500
C114        C  0.24624757  0.23755146  0.23913778    -0.29700
H115        H  0.27293420  0.27257529  0.26826568     0.14500
H116        H  0.22156657  0.22211938  0.23445711     0.15100
C117        C  0.13410687  0.36387749  0.33085042    -0.14500
C118        C  0.09810002  0.37149030  0.33254818    -0.29700
H119        H  0.15414644  0.38570879  0.33268098     0.14500
H120        H  0.07806140  0.34958557  0.33381868     0.15100
C121        C  0.43743589  0.28249169  0.12667817    -0.14500
C122        C  0.43126542  0.27631975  0.15493557    -0.29700
H123        H  0.41548575  0.27791981  0.11141609     0.14500
H124        H  0.45176972  0.28303589  0.17091714     0.15100
C125        C  0.49997247  0.42035130  0.13368042    -0.14500
C126        C  0.48849268  0.45239539  0.12336813    -0.29700
H127        H  0.99574378  0.41368901  0.16779761     0.14500
H128        H  0.49105634  0.45869565  0.10052788     0.15100
C129        C  0.32796392  0.48404827  0.11811540    -0.14500
C130        C  0.33336556  0.48113986  0.14663798    -0.29700
H131        H  0.34855481  0.49719781  0.10456260     0.14500
H132        H  0.31435393  0.46577479  0.16011761     0.15100
C133        C  0.28451912  0.32863105  0.10412154    -0.14500
C134        C  0.28563162  0.32486856  0.13296673    -0.29700
H135        H  0.29303423  0.30663862  0.08972359     0.14500
H136        H  0.27861402  0.34784877  0.14691486     0.15100
C137        C  0.14116559  0.39925428  0.08283406    -0.14500
C138        C  0.13255816  0.36357838  0.08346489    -0.29700
H139        H  0.12022396  0.41973723  0.08679669     0.14500
H140        H  0.15407349  0.34319382  0.08236921     0.15100
C141        C  0.18978343  0.03000512  0.34520489    -0.14500
C142        C  0.21450895  0.01210738  0.36089342    -0.29700
H143        H  0.15625391  0.50367146  0.41044464     0.12900
H144        H  0.21452518  0.98252736  0.36170351     0.15100
C145        C  0.21959374  0.18971844  0.38707292    -0.14500
C146        C  0.23795554  0.16068965  0.37675038    -0.29700
H147        H  0.21594337  0.19400729  0.41018471     0.14500
H148        H  0.24261474  0.15802864  0.35356260     0.15100
C149        C  0.26116720  0.49159308  0.00134700    -0.14500
C150        C  0.24944312  0.00867830  0.49382567    -0.29700
H151        H  0.27179079  0.47879726  0.98172858     0.14500
H152        H  0.23451497  0.02083469  0.51190608     0.15100
C153        C  0.04940634  0.22385499  0.37060303    -0.14500
C154        C  0.07014131  0.20888226  0.34935480    -0.29700
H155        H  0.05498333  0.25172146  0.37744364     0.14500
H156        H  0.06503612  0.18120659  0.34189136     0.15100
C157        C  0.04070130  0.04223477  0.39879717    -0.14500
C158        C  0.05631467  0.07278547  0.40931642    -0.29700
H159        H  0.01249560  0.03555241  0.40438443     0.14500
H160        H  0.08495342  0.07855232  0.40447885     0.15100
C161        C  0.00724148  0.21775874  0.51031973    -0.14500
C162        C  0.00178283  0.27167867  0.02129705    -0.29700
H163        H  0.47918901  0.27242476  0.49187233     0.14500
H164        H  0.98643731  0.28474866  0.00432968     0.15100
C165        C  0.37793252  0.10463019  0.42983506    -0.14500
C166        C  0.38613380  0.14015157  0.42705355    -0.29700
H167        H  0.39961813  0.08463087  0.43186660     0.14500
H168        H  0.36490693  0.15969644  0.42199016     0.15100
In169      In  0.49373754  0.17810584  0.93468405     1.36900
C170        C  0.02215613  0.11632605  0.91884284     0.79500
O171        O  0.44817170  0.14334751  0.95105446    -0.59000
O172        O  0.43596051  0.18419257  0.91981681    -0.49900
C173        C  0.49482625  0.22434034  0.97918521     0.72100
O174        O  0.01755104  0.18264236  0.98832792    -0.44700
C175        C  0.04166964  0.21804341  0.91150084     0.76900
O176        O  0.02643106  0.12299378  0.94554630    -0.56600
O177        O  0.00892243  0.21244800  0.90383369    -0.46700
O178        O  0.50209662  0.13827029  0.89942649    -0.53000
C179        C  0.42447401  0.15803705  0.93529184     0.87000
O180        O  0.47775245  0.23042339  0.95616722    -0.54900
O181        O  0.05071898  0.20339355  0.93486981    -0.58200
In182      In  0.26963024  0.07944489  0.93449799     1.36900
C183        C  0.24939492  0.13664238  0.90514495     0.79500
O184        O  0.31386233  0.11665804  0.94893954    -0.59000
O185        O  0.32916749  0.06811663  0.92585458    -0.49900
C186        C  0.25762929  0.04235446  0.98249508     0.72100
O187        O  0.24724565  0.07518830  0.97996257    -0.44700
C188        C  0.22288498  0.04136647  0.90435533     0.76900
O189        O  0.24408012  0.13521131  0.93237786    -0.56600
O190        O  0.25661116  0.04224653  0.89722163    -0.46700
O191        O  0.26560625  0.10962238  0.89386791    -0.53000
C192        C  0.33921862  0.09776234  0.93764570     0.87000
O193        O  0.27589302  0.02980008  0.96123172    -0.54900
O194        O  0.21406799  0.05853310  0.92716936    -0.58200
In195      In  0.24692354  0.40431436  0.57370641     1.36900
C196        C  0.26773198  0.34162637  0.59533454     0.79500
O197        O  0.30333820  0.42479494  0.57962283    -0.59000
O198        O  0.26352549  0.43917892  0.61197751    -0.49900
C199        C  0.25351542  0.44146365  0.52511261     0.72100
O200        O  0.26385613  0.40861041  0.52688416    -0.44700
C201        C  0.17603178  0.39044156  0.57611121     0.76900
O202        O  0.27249518  0.34846056  0.56868266    -0.56600
O203        O  0.18951765  0.41852933  0.58805289    -0.46700
O204        O  0.25213244  0.36650857  0.60989336    -0.53000
C205        C  0.29656737  0.44086108  0.60327859     0.87000
O206        O  0.23815630  0.45419696  0.54764285    -0.54900
O207        O  0.19851877  0.37093026  0.56204248    -0.58200
In208      In  0.01796200  0.31664412  0.58627586     1.36900
C209        C  0.49596687  0.38660447  0.60000158     0.79500
O210        O  0.46109588  0.30286559  0.58912504    -0.59000
O211        O  0.01398272  0.27775573  0.62386974    -0.49900
C212        C  0.00424277  0.27544321  0.53926377     0.72100
O213        O  0.99364867  0.30807914  0.54187687    -0.44700
C214        C  0.08819459  0.33451422  0.58160538     0.76900
O215        O  0.49253290  0.37597939  0.57394928    -0.56600
O216        O  0.07736326  0.30736675  0.59602917    -0.46700
O217        O  0.01452922  0.35982754  0.62008816    -0.53000
C218        C  0.46519312  0.29087066  0.61435319     0.87000
O219        O  0.02203912  0.26407335  0.56047641    -0.54900
O220        O  0.06334337  0.35165724  0.56896541    -0.58200
In221      In  0.17781689  0.26870905  0.83886703     1.36900
C222        C  0.11218548  0.24706733  0.85560945     0.79500
O223        O  0.19861944  0.21473086  0.85138844    -0.59000
O224        O  0.20544179  0.25858387  0.88147489    -0.49900
C225        C  0.22724475  0.26238024  0.79683322     0.72100
O226        O  0.19622533  0.24673446  0.79543826    -0.44700
C227        C  0.15945453  0.33753430  0.83280077     0.76900
O228        O  0.12493125  0.23833563  0.83079995    -0.56600
O229        O  0.18471943  0.32790145  0.84960831    -0.46700
O230        O  0.13274571  0.26720414  0.87064923    -0.53000
C231        C  0.20987316  0.22500787  0.87583131     0.87000
O232        O  0.23188865  0.28207501  0.81898131    -0.54900
O233        O  0.14473889  0.31209375  0.81844096    -0.58200
In234      In  0.08250468  0.49273618  0.83131442     1.36900
C235        C  0.15322879  0.02060666  0.84684159     0.79500
O236        O  0.06731171  0.05828720  0.83374902    -0.59000
O237        O  0.04140774  0.50013608  0.86796678    -0.49900
C238        C  0.04090932  0.50341722  0.78505730     0.72100
O239        O  0.08307168  0.01858237  0.78002073    -0.44700
C240        C  0.10013644  0.42259658  0.82972300     0.76900
O241        O  0.14456115  0.02804859  0.82106840    -0.56600
O242        O  0.07453612  0.43469800  0.84571932    -0.46700
O243        O  0.12598277  0.49678309  0.86384978    -0.53000
C244        C  0.05359058  0.05187155  0.85833378     0.87000
O245        O  0.03091568  0.48458393  0.80640977    -0.54900
O246        O  0.11542782  0.44597369  0.81374689    -0.58200
In247      In  0.43369059  0.00877627  0.67728007     1.36900
C248        C  0.35964601  0.48002971  0.66112262     0.79500
O249        O  0.39717973  0.05249958  0.69419508    -0.59000
O250        O  0.44249229  0.06833583  0.66737729    -0.49900
C251        C  0.47349798  0.00080209  0.72449718     0.72100
O252        O  0.42745502  0.48985243  0.72962479    -0.44700
C253        C  0.45955509  0.45617226  0.65437426     0.76900
O254        O  0.36553061  0.47895287  0.68809558    -0.56600
O255        O  0.46845826  0.99753075  0.63708058    -0.46700
O256        O  0.39330568  0.00492316  0.64236444    -0.53000
C257        C  0.41413658  0.07794742  0.68159638     0.87000
O258        O  0.48489769  0.01795803  0.70254715    -0.54900
O259        O  0.44325946  0.45007574  0.67806644    -0.58200
In260      In  0.33120243  0.22988718  0.68677634     1.36900
C261        C  0.39491766  0.25672349  0.66994572     0.79500
O262        O  0.36597636  0.18443666  0.70205570    -0.59000
O263        O  0.32560413  0.17256731  0.67021933    -0.49900
C264        C  0.28342664  0.23141082  0.73029155     0.72100
O265        O  0.31444295  0.24700786  0.73188887    -0.44700
C266        C  0.29616429  0.27701080  0.65485329     0.76900
O267        O  0.38473302  0.25893785  0.69629183    -0.56600
O268        O  0.30194189  0.24476616  0.64583391    -0.46700
O269        O  0.37281447  0.24051551  0.65346819    -0.53000
C270        C  0.35179668  0.16112037  0.68533159     0.87000
O271        O  0.27818113  0.21351851  0.70728173    -0.54900
O272        O  0.30729551  0.28407728  0.67995867    -0.58200
C273        C  0.36514072  0.12340305  0.68344430    -0.14500
C274        C  0.40118567  0.11586673  0.68329014    -0.29700
H275        H  0.34525238  0.10162185  0.68057637     0.14500
H276        H  0.42122240  0.13782513  0.68318768     0.15100
C277        C  0.49602693  0.99535426  0.75045703    -0.14500
C278        C  0.01698577  0.50977975  0.76001480    -0.29700
H279        H  0.47160200  0.48410929  0.77537350     0.14500
H280        H  0.04077997  0.02245191  0.73309262     0.15100
C281        C  0.25667260  0.25816909  0.77485713    -0.14500
C282        C  0.25445418  0.23442291  0.75278130    -0.29700
H283        H  0.28108541  0.27489188  0.77718050     0.14500
H284        H  0.22996836  0.21784377  0.75033566     0.15100
C285        C  0.14759823  0.37563324  0.83043790    -0.14500
C286        C  0.11187969  0.38429525  0.83013980    -0.29700
H287        H  0.16821992  0.39702110  0.83124915     0.14500
H288        H  0.09118893  0.36315178  0.83261378     0.15100
C289        C  0.43396403  0.27411100  0.62946987    -0.14500
C290        C  0.42947472  0.27222748  0.65832539    -0.29700
H291        H  0.41201652  0.26492529  0.61551744     0.14500
H292        H  0.44997045  0.28316510  0.67282776     0.15100
C293        C  0.48148709  0.42150825  0.61130035    -0.14500
C294        C  0.48005818  0.42683478  0.64005205    -0.29700
H295        H  0.96721917  0.43457814  0.60341730     0.14500
H296        H  0.49036693  0.40593944  0.65432412     0.15100
C297        C  0.32602939  0.45973630  0.61873848    -0.14500
C298        C  0.32656152  0.46459934  0.64757042    -0.29700
H299        H  0.34996973  0.46706738  0.60580564     0.14500
H300        H  0.30390097  0.45530112  0.66107870     0.15100
C301        C  0.28035177  0.30791854  0.60921318    -0.14500
C302        C  0.27835870  0.30549554  0.63815958    -0.29700
H303        H  0.29364578  0.28680231  0.59630645     0.14500
H304        H  0.26677701  0.32787003  0.65077789     0.15100
C305        C  0.13710926  0.38048151  0.57866832    -0.14500
C306        C  0.12689166  0.34526523  0.57955647    -0.29700
H307        H  0.11685560  0.40196927  0.58107492     0.14500
H308        H  0.14746904  0.32394257  0.57997934     0.15100
C309        C  0.18842113  0.03107944  0.85984224    -0.14500
C310        C  0.19471453  0.02282590  0.88759113    -0.29700
H311        H  0.20096542  0.54422378  0.84476653     0.12900
H312        H  0.17441601  0.00754590  0.89993669     0.15100
C313        C  0.22606524  0.19907760  0.89621592    -0.14500
C314        C  0.23653914  0.16609491  0.88661322    -0.29700
H315        H  0.22862147  0.20655501  0.91885692     0.14500
H316        H  0.23541749  0.15986320  0.86361922     0.15100
C317        C  0.26006292  0.46368478  0.49903240    -0.14500
C318        C  0.24829909  0.01996393  0.00804269    -0.29700
H319        H  0.27181832  0.45046959  0.47999215     0.14500
H320        H  0.23583887  0.03336304  0.02672024     0.15100
C321        C  0.06844514  0.23982244  0.89529749    -0.14500
C322        C  0.07696271  0.23339989  0.86735866    -0.29700
H323        H  0.08656929  0.25652969  0.90835074     0.14500
H324        H  0.06063500  0.21466073  0.85454470     0.15100
C325        C  0.03595144  0.08117176  0.87512779    -0.14500
C326        C  0.03613736  0.08320524  0.90414620    -0.29700
H327        H  0.02569049  0.10396944  0.86278264     0.14500
H328        H  0.04840354  0.06171211  0.91676548     0.15100
C329        C  0.01209908  0.23650351  0.01824843    -0.14500
C330        C  0.99651808  0.25284064  0.51327062    -0.29700
H331        H  0.48143259  0.27731847  0.99959342     0.14500
H332        H  0.98220223  0.26586319  0.49571848     0.15100
C333        C  0.37761587  0.10996030  0.93786470    -0.14500
C334        C  0.38621711  0.14544347  0.93499610    -0.29700
H335        H  0.39909160  0.08959986  0.93891321     0.14500
H336        H  0.36488237  0.16531159  0.93105825     0.15100
In337      In  0.48984670  0.66941352  0.42772539     1.36900
C338        C  0.01206975  0.61150582  0.41812342     0.79500
O339        O  0.44498924  0.63498807  0.44698233    -0.59000
O340        O  0.43137135  0.67153001  0.41322955    -0.49900
C341        C  0.49697632  0.71692195  0.47188828     0.72100
O342        O  0.00745021  0.69078043  0.47624740    -0.44700
C343        C  0.02171182  0.71046326  0.38986795     0.76900
O344        O  0.02364405  0.62985521  0.43948194    -0.56600
O345        O  0.98733674  0.71309066  0.39242521    -0.46700
O346        O  0.49224096  0.61859975  0.40102761    -0.53000
C347        C  0.42073306  0.64687210  0.43035708     0.87000
O348        O  0.47944667  0.72352554  0.44934240    -0.54900
O349        O  0.03667078  0.69074178  0.40837762    -0.58200
In350      In  0.26888880  0.56205826  0.42618344     1.36900
C351        C  0.24544429  0.62137908  0.40118353     0.79500
O352        O  0.31215952  0.59965932  0.44184035    -0.59000
O353        O  0.32873566  0.55428146  0.41553767    -0.49900
C354        C  0.26025134  0.52260365  0.47331402     0.72100
O355        O  0.24911910  0.55524833  0.47188699    -0.44700
C356        C  0.22229393  0.52496400  0.39459630     0.76900
O357        O  0.24019662  0.61648117  0.42812172    -0.56600
O358        O  0.25619121  0.52575586  0.38803088    -0.46700
O359        O  0.26316484  0.59668031  0.38805404    -0.53000
C360        C  0.33798139  0.58302082  0.42906062     0.87000
O361        O  0.27725585  0.51098523  0.45109906    -0.54900
O362        O  0.21341326  0.54147630  0.41773744    -0.58200
In363      In  0.23777136  0.92234548  0.08174847     1.36900
C364        C  0.26166392  0.85966575  0.10176672     0.79500
O365        O  0.29251366  0.94533788  0.08875971    -0.59000
O366        O  0.25154961  0.95614618  0.12123434    -0.49900
C367        C  0.24627554  0.96103010  0.03387686     0.72100
O368        O  0.25594002  0.92795669  0.03531917    -0.44700
C369        C  0.16701209  0.90778782  0.08251772     0.76900
O370        O  0.26439837  0.86724058  0.07511114    -0.56600
O371        O  0.17982522  0.93575112  0.09501228    -0.46700
O372        O  0.24655869  0.88388769  0.11732465    -0.53000
C373        C  0.28441406  0.96024133  0.11263259     0.87000
O374        O  0.23046581  0.97339306  0.05632575    -0.54900
O375        O  0.19021494  0.88828858  0.06925578    -0.58200
In376      In  0.00810066  0.83748030  0.07774854     1.36900
C377        C  0.48859821  0.89280887  0.09995604     0.79500
O378        O  0.46019554  0.80627715  0.08767328    -0.59000
O379        O  0.99268239  0.80216125  0.11584043    -0.49900
C380        C  0.00658103  0.80176372  0.02801132     0.72100
O381        O  0.99249551  0.83315119  0.03103925    -0.44700
C382        C  0.07815809  0.85379253  0.08019062     0.76900
O383        O  0.48861020  0.88327406  0.07346317    -0.56600
O384        O  0.06527338  0.82499716  0.09130946    -0.46700
O385        O  0.99680755  0.87308855  0.11510470    -0.53000
C386        C  0.46426368  0.79489168  0.11309202     0.87000
O387        O  0.02288530  0.78993049  0.04992313    -0.54900
O388        O  0.05531725  0.87359479  0.06751576    -0.58200
In389      In  0.17230498  0.75718179  0.34096200     1.36900
C390        C  0.10505228  0.73073147  0.34651235     0.79500
O391        O  0.19206191  0.70231235  0.35207365    -0.59000
O392        O  0.19714991  0.74357522  0.38430740    -0.49900
C393        C  0.22397663  0.75789963  0.29976891     0.72100
O394        O  0.19250899  0.74432266  0.29575153    -0.44700
C395        C  0.15306310  0.82616340  0.34350683     0.76900
O396        O  0.12564303  0.72175331  0.32543210    -0.56600
O397        O  0.17114264  0.81144265  0.36342317    -0.46700
O398        O  0.11836477  0.75403435  0.36351114    -0.53000
C399        C  0.20201683  0.71055670  0.37725601     0.87000
O400        O  0.22835080  0.77217660  0.32440921    -0.54900
O401        O  0.14720841  0.80616044  0.32164540    -0.58200
In402      In  0.08881617  0.98585416  0.33051952     1.36900
C403        C  0.12887497  0.49183302  0.36987048     0.79500
O404        O  0.05799394  0.53427601  0.35939160    -0.59000
O405        O  0.05018598  0.98838895  0.36932495    -0.49900
C406        C  0.04223046  0.99695770  0.28740069     0.72100
O407        O  0.06422938  0.50632116  0.29890969    -0.44700
C408        C  0.10622094  0.91611444  0.32685480     0.76900
O409        O  0.12591172  0.49964421  0.34324927    -0.56600
O410        O  0.09632349  0.93089745  0.35047175    -0.46700
O411        O  0.14574928  0.98206418  0.34663484    -0.53000
C412        C  0.03143091  0.52485813  0.37546771     0.87000
O413        O  0.03261518  0.98298666  0.31117175    -0.54900
O414        O  0.10500524  0.93641213  0.30503651    -0.58200
In415      In  0.43042277  0.51959738  0.17925389     1.36900
C416        C  0.35233917  0.99292455  0.16844638     0.79500
O417        O  0.39388655  0.56397072  0.19544358    -0.59000
O418        O  0.44014329  0.57913242  0.16957609    -0.49900
C419        C  0.46778600  0.50813672  0.22721608     0.72100
O420        O  0.43849626  0.99671363  0.22781340    -0.44700
C421        C  0.44909790  0.96167536  0.15424872     0.76900
O422        O  0.36249606  0.98807546  0.19433156    -0.56600
O423        O  0.46592532  0.51169571  0.13887666    -0.46700
O424        O  0.38971418  0.51449955  0.14458867    -0.53000
C425        C  0.41135008  0.58911983  0.18294377     0.87000
O426        O  0.48064880  0.52615392  0.20623234    -0.54900
O427        O  0.43194070  0.95638263  0.17775028    -0.58200
In428      In  0.32809883  0.74090531  0.18684201     1.36900
C429        C  0.39230326  0.76502084  0.16886111     0.79500
O430        O  0.36326314  0.69543268  0.20115091    -0.59000
O431        O  0.32308539  0.68418229  0.16891906    -0.49900
C432        C  0.28024633  0.73798141  0.23035949     0.72100
O433        O  0.31112628  0.75367795  0.23292727    -0.44700
C434        C  0.29404885  0.79201871  0.15820712     0.76900
O435        O  0.38292226  0.76748645  0.19541150    -0.56600
O436        O  0.29649912  0.75976816  0.14819394    -0.46700
O437        O  0.36877125  0.75056672  0.15253898    -0.53000
C438        C  0.34925402  0.67247792  0.18400801     0.87000
O439        O  0.27503091  0.72273258  0.20617209    -0.54900
O440        O  0.30810003  0.79723364  0.18268778    -0.58200
C441        C  0.36260467  0.63477443  0.18193262    -0.14500
C442        C  0.39849794  0.62707592  0.18374629    -0.29700
H443        H  0.34290043  0.61310538  0.17797246     0.14500
H444        H  0.41859678  0.64892943  0.18481485     0.15100
C445        C  0.48922187  0.49940449  0.25310191    -0.14500
C446        C  0.01661479  0.00286060  0.26332844    -0.29700
H447        H  0.52566391  0.02246619  0.23902822     0.14500
H448        H  0.02444423  0.51961508  0.25194621     0.15100
C449        C  0.25383446  0.75719269  0.27777185    -0.14500
C450        C  0.25135599  0.73780704  0.25312376    -0.29700
H451        H  0.27855190  0.77271944  0.28213748     0.14500
H452        H  0.22664645  0.72217399  0.24890589     0.15100
C453        C  0.13856068  0.86341245  0.34616122    -0.14500
C454        C  0.11975443  0.87860179  0.32467300    -0.29700
H455        H  0.14316580  0.87850094  0.36610806     0.14500
H456        H  0.11674133  0.86430157  0.30417839     0.15100
C457        C  0.43338145  0.77740186  0.12820616    -0.14500
C458        C  0.42766150  0.77837288  0.15699691    -0.29700
H459        H  0.41216443  0.76655406  0.11428421     0.14500
H460        H  0.44765093  0.79069710  0.17126355     0.15100
C461        C  0.47281854  0.92729561  0.11110611    -0.14500
C462        C  0.46705037  0.93077582  0.13973888    -0.29700
H463        H  0.95654497  0.95335767  0.10358912     0.14500
H464        H  0.47342053  0.90810385  0.15378736     0.15100
C465        C  0.31234346  0.98089975  0.12811295    -0.14500
C466        C  0.31736427  0.97932965  0.15680635    -0.29700
H467        H  0.33312806  0.99347922  0.11439156     0.14500
H468        H  0.29814906  0.96483647  0.17071427     0.15100
C469        C  0.27560834  0.82563696  0.11438087    -0.14500
C470        C  0.27645167  0.82229448  0.14328025    -0.29700
H471        H  0.28700675  0.80456581  0.10033860     0.14500
H472        H  0.26692133  0.84462432  0.15697617     0.15100
C473        C  0.12794309  0.89839868  0.08310094    -0.14500
C474        C  0.11704216  0.86346143  0.08155585    -0.29700
H475        H  0.10796377  0.92016829  0.08532168     0.14500
H476        H  0.13701574  0.84157518  0.08188473     0.15100
C477        C  0.16090558  0.50117088  0.38725128    -0.14500
C478        C  0.19426481  0.50818831  0.37609000    -0.29700
H479        H  0.19097909  0.05957063  0.34390570     0.12900
H480        H  0.20006968  0.50396307  0.35322306     0.15100
C481        C  0.21791612  0.68310233  0.39651114    -0.14500
C482        C  0.23118232  0.65219585  0.38482647    -0.29700
H483        H  0.21867931  0.68797860  0.41967942     0.14500
H484        H  0.23179423  0.64894057  0.36143659     0.15100
C485        C  0.25420574  0.98367153  0.00823569    -0.14500
C486        C  0.25312935  0.49975105  0.49892358    -0.29700
H487        H  0.26645151  0.97034093  0.98943704     0.14500
H488        H  0.24127738  0.51285385  0.51797306     0.15100
C489        C  0.04388592  0.73040754  0.36852834    -0.14500
C490        C  0.06988824  0.71288567  0.35308327    -0.29700
H491        H  0.04458359  0.75993229  0.37050735     0.14500
H492        H  0.06850794  0.68345615  0.35042384     0.15100
C493        C  0.01121422  0.55207335  0.39285487    -0.14500
C494        C  0.02940607  0.57733763  0.40825374    -0.29700
H495        H  0.98166106  0.55351120  0.39080289     0.14500
H496        H  0.05863636  0.57432483  0.41159071     0.15100
C497        C  0.99852507  0.74923811  0.50062254    -0.14500
C498        C  0.00282268  0.77989048  0.00132932    -0.29700
H499        H  0.48589041  0.77011881  0.49292989     0.14500
H500        H  0.99022032  0.79260470  0.98282488     0.15100
C501        C  0.37594883  0.59672536  0.42965697    -0.14500
C502        C  0.38298907  0.63274242  0.43059796    -0.29700
H503        H  0.39831797  0.57735573  0.42774030     0.14500
H504        H  0.36066986  0.65217728  0.42945743     0.15100
In505      In  0.49657194  0.67844445  0.92890652     1.36900
C506        C  0.02485551  0.61793575  0.91425320     0.79500
O507        O  0.44855152  0.64615580  0.94416431    -0.59000
O508        O  0.43991639  0.68755593  0.91255974    -0.49900
C509        C  0.49666018  0.72687763  0.97156897     0.72100
O510        O  0.01628140  0.68902952  0.97208807    -0.44700
C511        C  0.02799353  0.71974109  0.88492476     0.76900
O512        O  0.03868100  0.63989617  0.93238429    -0.56600
O513        O  0.99729675  0.72906857  0.89527486    -0.46700
O514        O  0.50367007  0.63704117  0.89507151    -0.53000
C515        C  0.42636447  0.66212770  0.92780250     0.87000
O516        O  0.48152094  0.73240305  0.94762425    -0.54900
O517        O  0.04029407  0.69067200  0.89496559    -0.58200
In518      In  0.26803162  0.58797112  0.92778139     1.36900
C519        C  0.24422246  0.64505086  0.90002662     0.79500
O520        O  0.31376941  0.62548678  0.93914498    -0.59000
O521        O  0.32680863  0.57643044  0.91601757    -0.49900
C522        C  0.26201861  0.55073500  0.97632352     0.72100
O523        O  0.25124177  0.58356296  0.97471254    -0.44700
C524        C  0.21885938  0.54796679  0.90139281     0.76900
O525        O  0.24110905  0.64341399  0.92743426    -0.56600
O526        O  0.25153468  0.55003519  0.89169161    -0.46700
O527        O  0.25975409  0.61823864  0.88784448    -0.53000
C528        C  0.33818103  0.60588938  0.92731286     0.87000
O529        O  0.27776418  0.53838779  0.95378955    -0.54900
O530        O  0.21224533  0.56550264  0.92447775    -0.58200
In531      In  0.25549825  0.91385732  0.57067096     1.36900
C532        C  0.27906940  0.85137382  0.59132273     0.79500
O533        O  0.31122687  0.93656493  0.57573300    -0.59000
O534        O  0.27166199  0.94913242  0.60877003    -0.49900
C535        C  0.25757289  0.95172310  0.52189695     0.72100
O536        O  0.27103155  0.92001743  0.52371119    -0.44700
C537        C  0.18574408  0.89574842  0.57543575     0.76900
O538        O  0.28206184  0.85839876  0.56454814    -0.56600
O539        O  0.19816325  0.92461002  0.58695160    -0.46700
O540        O  0.26454465  0.87626070  0.60655288    -0.53000
C541        C  0.30438990  0.95214771  0.59958066     0.87000
O542        O  0.24169535  0.96316409  0.54464089    -0.54900
O543        O  0.20851179  0.87769968  0.56043033    -0.58200
In544      In  0.03401083  0.81250362  0.59340177     1.36900
C545        C  0.50665980  0.87192200  0.61406887     0.79500
O546        O  0.47151542  0.79340960  0.58969399    -0.59000
O547        O  0.02492817  0.77164931  0.62883384    -0.49900
C548        C  0.02563273  0.76951294  0.54719228     0.72100
O549        O  0.01039520  0.80057780  0.54905986    -0.44700
C550        C  0.10226344  0.83462383  0.58664655     0.76900
O551        O  0.50354306  0.86895120  0.58671833    -0.56600
O552        O  0.09396525  0.80740322  0.60217167    -0.46700
O553        O  0.03119715  0.84705674  0.63267156    -0.53000
C554        C  0.47570639  0.77724316  0.61345738     0.87000
O555        O  0.04554811  0.76160660  0.56828501    -0.54900
O556        O  0.07577658  0.84966214  0.57416835    -0.58200
In557      In  0.17479809  0.77582737  0.83125464     1.36900
C558        C  0.10926474  0.74666170  0.83964352     0.79500
O559        O  0.19689278  0.72334925  0.84537551    -0.59000
O560        O  0.19772728  0.76657893  0.87615875    -0.49900
C561        C  0.22516794  0.77164086  0.78905176     0.72100
O562        O  0.19319102  0.75875409  0.78624645    -0.44700
C563        C  0.15646106  0.84505787  0.83022683     0.76900
O564        O  0.12959086  0.73729815  0.81847565    -0.56600
O565        O  0.18198447  0.83356211  0.84592596    -0.46700
O566        O  0.12166266  0.77215955  0.85515275    -0.53000
C567        C  0.20453588  0.73344556  0.87064458     0.87000
O568        O  0.23032004  0.78846615  0.81251275    -0.54900
O569        O  0.14132169  0.82136176  0.81441058    -0.58200
In570      In  0.08842870  0.00242640  0.82669460     1.36900
C571        C  0.14767449  0.51502392  0.84804639     0.79500
O572        O  0.07002384  0.54650721  0.85180008    -0.59000
O573        O  0.05649429  0.01927876  0.86680971    -0.49900
C574        C  0.05052477  0.00664686  0.77841164     0.72100
O575        O  0.07296769  0.51626027  0.78682627    -0.44700
C576        C  0.10058928  0.93195104  0.82754707     0.76900
O577        O  0.13633567  0.52136776  0.82278025    -0.56600
O578        O  0.07297254  0.94569551  0.84040336    -0.46700
O579        O  0.12887671  0.00421622  0.86138822    -0.53000
C580        C  0.04682823  0.53413357  0.86961800     0.87000
O581        O  0.03830145  0.99169808  0.80111519    -0.54900
O582        O  0.12032205  0.95401436  0.81342911    -0.58200
In583      In  0.42121768  0.50536947  0.68285081     1.36900
C584        C  0.37056689  0.98614033  0.65679162     0.79500
O585        O  0.38634913  0.55242520  0.69514644    -0.59000
O586        O  0.43360724  0.56278655  0.66868437    -0.49900
C587        C  0.46041153  0.50081001  0.73050071     0.72100
O588        O  0.44122001  0.98838636  0.72256623    -0.44700
C589        C  0.46925695  0.96354044  0.64190838     0.76900
O590        O  0.37967695  0.97955525  0.68261278    -0.56600
O591        O  0.45679245  0.48836961  0.64479162    -0.46700
O592        O  0.38476982  0.49466580  0.64613186    -0.53000
C593        C  0.40531235  0.57539506  0.68133348     0.87000
O594        O  0.47208932  0.51582212  0.70766211    -0.54900
O595        O  0.45323469  0.95383503  0.66497012    -0.58200
In596      In  0.33321911  0.73212421  0.68214615     1.36900
C597        C  0.40013696  0.75077230  0.66669300     0.79500
O598        O  0.36357751  0.68454343  0.69879417    -0.59000
O599        O  0.32382484  0.67522721  0.66585509    -0.49900
C600        C  0.28271354  0.73782810  0.72371905     0.72100
O601        O  0.31495117  0.75026131  0.72679067    -0.44700
C602        C  0.30611638  0.78397363  0.64990130     0.76900
O603        O  0.38889490  0.75553918  0.69260906    -0.56600
O604        O  0.30759467  0.75130320  0.64069174    -0.46700
O605        O  0.37721937  0.73639439  0.64982724    -0.53000
C606        C  0.34852908  0.66217379  0.68172635     0.87000
O607        O  0.27747041  0.72067020  0.70033069    -0.54900
O608        O  0.31757503  0.78912860  0.67520159    -0.58200
C609        C  0.35934446  0.62369944  0.68045207    -0.14500
C610        C  0.39482314  0.61399251  0.68034395    -0.29700
H611        H  0.33802394  0.60308285  0.67882354     0.14500
H612        H  0.41622063  0.63461057  0.67916103     0.15100
C613        C  0.48393059  0.49541040  0.75590330    -0.14500
C614        C  0.02813881  0.01054132  0.75220753    -0.29700
H615        H  0.48344587  0.98158355  0.76878180     0.14500
H616        H  0.02863823  0.52317251  0.74115163     0.15100
C617        C  0.25509667  0.76674517  0.76744136    -0.14500
C618        C  0.25258198  0.74333608  0.74507062    -0.29700
H619        H  0.28044655  0.78168201  0.77077313     0.14500
H620        H  0.22721226  0.72842438  0.74174276     0.15100
C621        C  0.14546047  0.88338018  0.83013143    -0.14500
C622        C  0.11011959  0.89323182  0.82917791    -0.29700
H623        H  0.16678162  0.90400094  0.83178625     0.14500
H624        H  0.08844143  0.87292544  0.83043602     0.15100
C625        C  0.44424239  0.75955886  0.62747570    -0.14500
C626        C  0.43670753  0.76203101  0.65596696    -0.29700
H627        H  0.42370410  0.74872270  0.61292817     0.14500
H628        H  0.45588943  0.77495335  0.67060256     0.15100
C629        C  0.49263550  0.90257308  0.63169020    -0.14500
C630        C  0.48644143  0.93644494  0.62209816    -0.29700
H631        H  0.99585705  0.89773250  0.66170896     0.14500
H632        H  0.49324202  0.94383338  0.59997608     0.15100
C633        C  0.33342583  0.97183675  0.61483651    -0.14500
C634        C  0.33673557  0.97185387  0.64372733    -0.29700
H635        H  0.35547504  0.98276929  0.60144286     0.14500
H636        H  0.31632664  0.95850125  0.65730505     0.15100
C637        C  0.29153106  0.81708568  0.60455610    -0.14500
C638        C  0.29201906  0.81487386  0.63354883    -0.29700
H639        H  0.30124286  0.79471025  0.59102132     0.14500
H640        H  0.28401971  0.83841453  0.64654836     0.15100
C641        C  0.14773038  0.88336171  0.57951222    -0.14500
C642        C  0.14011119  0.84779085  0.58315166    -0.29700
H643        H  0.12604994  0.90354220  0.58084575     0.14500
H644        H  0.16222198  0.82815471  0.58461826     0.15100
C645        C  0.18271772  0.52917352  0.85910169    -0.14500
C646        C  0.18957017  0.52719462  0.88749836    -0.29700
H647        H  0.20735646  0.04834243  0.84782446     0.12900
H648        H  0.16962962  0.51453543  0.90192058     0.15100
C649        C  0.21970557  0.70761883  0.89166640    -0.14500
C650        C  0.23018759  0.67455170  0.88212572    -0.29700
H651        H  0.22193359  0.71523702  0.91430428     0.14500
H652        H  0.22894093  0.66828273  0.85914583     0.15100
C653        C  0.26151842  0.97397838  0.49544624    -0.14500
C654        C  0.25548852  0.52792396  0.00215050    -0.29700
H655        H  0.27627378  0.96193244  0.47721991     0.14500
H656        H  0.24486709  0.54087690  0.02170114     0.15100
C657        C  0.04989483  0.74221185  0.86491102    -0.14500
C658        C  0.07570497  0.72682160  0.84783351    -0.29700
H659        H  0.04905262  0.77162178  0.86779037     0.14500
H660        H  0.07530595  0.69757803  0.84389848     0.15100
C661        C  0.02670783  0.55836795  0.88962621    -0.14500
C662        C  0.04422829  0.58527504  0.90365679    -0.29700
H663        H  0.99700432  0.55674086  0.89019458     0.14500
H664        H  0.07397496  0.58549783  0.90422045     0.15100
C665        C  0.01231737  0.74443004  0.00018856    -0.14500
C666        C  0.02085863  0.74331836  0.52289927    -0.29700
H667        H  0.48156021  0.78015658  0.99053906     0.14500
H668        H  0.03594028  0.71787156  0.52374920     0.15100
C669        C  0.37711733  0.61649495  0.92714471    -0.14500
C670        C  0.38747839  0.65169904  0.92664150    -0.29700
H671        H  0.39764117  0.59510340  0.92674953     0.14500
H672        H  0.36719183  0.67303558  0.92430087     0.15100
In673      In  0.99462397  0.16211387  0.43198152     1.36900
C674        C  0.51731309  0.10710221  0.41260374     0.79500
O675        O  0.94673260  0.12766044  0.44492241    -0.59000
O676        O  0.93778145  0.16949758  0.41435489    -0.49900
C677        C  0.00160274  0.19687767  0.48306863     0.72100
O678        O  0.50764477  0.18770031  0.47499138    -0.44700
C679        C  0.54570671  0.20528347  0.40031380     0.76900
O680        O  0.51857752  0.11654226  0.43908072    -0.56600
O681        O  0.51408609  0.20115082  0.38963351    -0.46700
O682        O  0.99975344  0.10341404  0.41944023    -0.53000
C683        C  0.92450452  0.14331334  0.42865044     0.87000
O684        O  0.98365264  0.20923376  0.46232814    -0.54900
O685        O  0.54975897  0.19254648  0.42531405    -0.58200
In686      In  0.76839031  0.06860931  0.42438437     1.36900
C687        C  0.75199800  0.12781967  0.39570344     0.79500
O688        O  0.81321715  0.10349808  0.44061720    -0.59000
O689        O  0.82722271  0.05739853  0.41379042    -0.49900
C690        C  0.76070373  0.02826396  0.47145433     0.72100
O691        O  0.74985896  0.06116327  0.47060821    -0.44700
C692        C  0.71649812  0.03386148  0.39717731     0.76900
O693        O  0.74604396  0.12597908  0.42287744    -0.56600
O694        O  0.74956469  0.03188108  0.38824208    -0.46700
O695        O  0.76664500  0.10001775  0.38416777    -0.53000
C696        C  0.83797131  0.08535671  0.42768909     0.87000
O697        O  0.77664196  0.01688691  0.44863200    -0.54900
O698        O  0.71091919  0.05297619  0.41967331    -0.58200
In699      In  0.75435730  0.41772166  0.07275270     1.36900
C700        C  0.78388372  0.35342334  0.08475281     0.79500
O701        O  0.80475683  0.44840293  0.08256587    -0.59000
O702        O  0.76600345  0.44256368  0.11694616    -0.49900
C703        C  0.75763285  0.45835075  0.02504419     0.72100
O704        O  0.76720293  0.42519412  0.02522587    -0.44700
C705        C  0.68378103  0.40240225  0.07594876     0.76900
O706        O  0.79564079  0.37278267  0.06409109    -0.56600
O707        O  0.69720240  0.43000524  0.08857611    -0.46700
O708        O  0.75653196  0.36626878  0.09812177    -0.53000
C709        C  0.79679442  0.45465436  0.10861595     0.87000
O710        O  0.74446333  0.46990012  0.04876142    -0.54900
O711        O  0.70612457  0.38406229  0.06073335    -0.58200
In712      In  0.52759631  0.32810825  0.08876601     1.36900
C713        C  0.00786201  0.38903261  0.12569750     0.79500
O714        O  0.97248137  0.31562611  0.11544388    -0.59000
O715        O  0.50266514  0.29542820  0.12500570    -0.49900
C716        C  0.52397540  0.27933216  0.04662505     0.72100
O717        O  0.51120587  0.31141931  0.04387073    -0.44700
C718        C  0.59675289  0.34549544  0.08298519     0.76900
O719        O  0.99905016  0.38549489  0.09929785    -0.56600
O720        O  0.58625244  0.32001623  0.09969844    -0.46700
O721        O  0.52612608  0.36175346  0.12812421    -0.53000
C722        C  0.98514205  0.29002683  0.13038739     0.87000
O723        O  0.53993923  0.27333365  0.07026858    -0.54900
O724        O  0.57187526  0.36100825  0.06875548    -0.58200
In725      In  0.68375468  0.26329531  0.33077534     1.36900
C726        C  0.61879162  0.23796169  0.34657402     0.79500
O727        O  0.70555451  0.20909198  0.34215430    -0.59000
O728        O  0.71327908  0.25231319  0.37257778    -0.49900
C729        C  0.73100650  0.26160649  0.28656121     0.72100
O730        O  0.70026058  0.24546577  0.28556857    -0.44700
C731        C  0.66274370  0.33194427  0.32906051     0.76900
O732        O  0.63109213  0.23293119  0.32102940    -0.56600
O733        O  0.68880928  0.32177383  0.34485528    -0.46700
O734        O  0.63950000  0.25615105  0.36293787    -0.53000
C735        C  0.71718464  0.21874989  0.36665074     0.87000
O736        O  0.73684423  0.27885671  0.30975585    -0.54900
O737        O  0.64858459  0.30729695  0.31361152    -0.58200
In738      In  0.58224740  0.48488900  0.32982824     1.36900
C739        C  0.64440469  0.00122876  0.34421922     0.79500
O740        O  0.56416658  0.03872989  0.33299478    -0.59000
O741        O  0.53718768  0.49058463  0.36369500    -0.49900
C742        C  0.54590273  0.49922814  0.28156026     0.72100
O743        O  0.56083481  0.99501692  0.28353120    -0.44700
C744        C  0.60079903  0.41511315  0.32725674     0.76900
O745        O  0.63494426  0.00293513  0.31788305    -0.56600
O746        O  0.57354555  0.42604947  0.34201072    -0.46700
O747        O  0.62237118  0.48792879  0.36497911    -0.53000
C748        C  0.54989344  0.03552103  0.35786565     0.87000
O749        O  0.53297699  0.47991019  0.30166168    -0.54900
O750        O  0.61692136  0.43936544  0.31272507    -0.58200
In751      In  0.90910304  0.00391888  0.19750055     1.36900
C752        C  0.85840772  0.48613123  0.16967134     0.79500
O753        O  0.88787254  0.05361481  0.21998908    -0.59000
O754        O  0.90957978  0.05907151  0.17705863    -0.49900
C755        C  0.95502483  0.99922534  0.24137842     0.72100
O756        O  0.92151301  0.49284818  0.23705193    -0.44700
C757        C  0.96060520  0.47394095  0.15564893     0.76900
O758        O  0.86693514  0.48003276  0.19565525    -0.56600
O759        O  0.94168340  0.99059274  0.15655094    -0.46700
O760        O  0.86018380  0.00420988  0.17002635    -0.53000
C761        C  0.89346185  0.07398946  0.19849602     0.87000
O762        O  0.96446090  0.01236465  0.21716225    -0.54900
O763        O  0.94780203  0.46219946  0.17927327    -0.58200
In764      In  0.83273631  0.23372061  0.17292550     1.36900
C765        C  0.89886404  0.26326430  0.16985937     0.79500
O766        O  0.85285843  0.18478868  0.19631904    -0.59000
O767        O  0.84194746  0.17936004  0.15136584    -0.49900
C768        C  0.78222692  0.24029387  0.21507072     0.72100
O769        O  0.81436952  0.25277943  0.21757482    -0.44700
C770        C  0.80259531  0.27068946  0.12978960     0.76900
O771        O  0.87389878  0.27619379  0.18619755    -0.56600
O772        O  0.79253697  0.23870232  0.13596879    -0.46700
O773        O  0.89067872  0.23401007  0.15694640    -0.53000
C774        C  0.85368783  0.16466529  0.17405111     0.87000
O775        O  0.77624842  0.22470339  0.19126389    -0.54900
O776        O  0.82845333  0.28269673  0.14472982    -0.58200
C777        C  0.86849388  0.12735965  0.17410416    -0.14500
C778        C  0.88046560  0.11186029  0.19840436    -0.29700
H779        H  0.86950851  0.11230097  0.15378887     0.14500
H780        H  0.87770639  0.12607098  0.21901063     0.15100
C781        C  0.98068550  0.99472937  0.26560528    -0.14500
C782        C  0.52484788  0.50840525  0.25554636    -0.29700
H783        H  0.96112796  0.48094716  0.28403536     0.14500
H784        H  0.47376814  0.97021041  0.27111208     0.15100
C785        C  0.75890393  0.26038115  0.26306216    -0.14500
C786        C  0.75350228  0.24289798  0.23788830    -0.29700
H787        H  0.78496071  0.27382934  0.26688580     0.14500
H788        H  0.72735641  0.22969696  0.23391769     0.15100
C789        C  0.64955893  0.36971182  0.32870148    -0.14500
C790        C  0.61360756  0.37720199  0.32746285    -0.29700
H791        H  0.66938968  0.39167259  0.33091409     0.14500
H792        H  0.59349633  0.35532976  0.32834393     0.15100
C793        C  0.96079450  0.26760546  0.14855881    -0.14500
C794        C  0.93285939  0.28325477  0.16318772    -0.29700
H795        H  0.96258776  0.23814375  0.14652258     0.14500
H796        H  0.93240411  0.31268477  0.16610254     0.15100
C797        C  0.99505929  0.41878223  0.14469158    -0.14500
C798        C  0.98057027  0.44993154  0.13519225    -0.29700
H799        H  0.49873177  0.41576878  0.15687812     0.14500
H800        H  0.98123507  0.45649083  0.11234138     0.15100
C801        C  0.82262288  0.47468685  0.12675218    -0.14500
C802        C  0.82632535  0.46985303  0.15532172    -0.29700
H803        H  0.84250481  0.49124271  0.11503375     0.14500
H804        H  0.80796179  0.45190981  0.16723353     0.15100
C805        C  0.80236729  0.32022674  0.09458841    -0.14500
C806        C  0.78393763  0.29398128  0.10885650    -0.29700
H807        H  0.83211331  0.31985368  0.09372717     0.14500
H808        H  0.75420970  0.29311861  0.10845942     0.15100
C809        C  0.64509241  0.39179680  0.07904022    -0.14500
C810        C  0.63534722  0.35647371  0.08021438    -0.29700
H811        H  0.62459237  0.41299803  0.08179851     0.14500
H812        H  0.65618261  0.33539256  0.08044088     0.15100
C813        C  0.68036852  0.01357946  0.35486645    -0.14500
C814        C  0.68559773  0.01532190  0.38355092    -0.29700
H815        H  0.70169792  0.52977216  0.34973549     0.12900
H816        H  0.66367530  0.00713148  0.39825840     0.15100
C817        C  0.73251780  0.19204606  0.38699565    -0.14500
C818        C  0.74132594  0.15853295  0.37736958    -0.29700
H819        H  0.73505578  0.19919396  0.40970277     0.14500
H820        H  0.74013955  0.15266708  0.35433022     0.15100
C821        C  0.76279098  0.48185693  0.99929788    -0.14500
C822        C  0.75481922  0.00484063  0.49717161    -0.29700
H823        H  0.77347434  0.46916183  0.97965613     0.14500
H824        H  0.74509099  0.01775840  0.51702139     0.15100
C825        C  0.57650975  0.22387167  0.38600063    -0.14500
C826        C  0.58355259  0.22304510  0.35740273    -0.29700
H827        H  0.59666279  0.23557391  0.40047734     0.14500
H828        H  0.56502686  0.20937435  0.34266306     0.15100
C829        C  0.53458370  0.06768015  0.37244873    -0.14500
C830        C  0.53083282  0.07186075  0.40120940    -0.29700
H831        H  0.52836643  0.09034131  0.35834199     0.14500
H832        H  0.53889214  0.05044967  0.41588480     0.15100
C833        C  0.49414959  0.24733420  0.49543231    -0.14500
C834        C  0.52041755  0.25015533  0.02444560    -0.29700
H835        H  0.02185667  0.20465996  0.52767781     0.14500
H836        H  0.53644294  0.22552839  0.02705505     0.15100
C837        C  0.87656713  0.09648096  0.42864774    -0.14500
C838        C  0.88608397  0.13179273  0.42667870    -0.29700
H839        H  0.89744949  0.07553149  0.42983609     0.14500
H840        H  0.86543673  0.15234115  0.42265000     0.15100
In841      In  0.99722019  0.17712468  0.94282280     1.36900
C842        C  0.51844842  0.11514710  0.91466784     0.79500
O843        O  0.95179310  0.14018231  0.95679943    -0.59000
O844        O  0.93825503  0.18703234  0.93210482    -0.49900
C845        C  0.00497842  0.21458082  0.99184072     0.72100
O846        O  0.50982674  0.19316709  0.98034823    -0.44700
C847        C  0.54264946  0.21508180  0.90457908     0.76900
O848        O  0.52187382  0.12393624  0.94114732    -0.56600
O849        O  0.51018552  0.21130134  0.89551880    -0.46700
O850        O  0.00531660  0.14058787  0.90518408    -0.53000
C851        C  0.92728902  0.15814691  0.94434439     0.87000
O852        O  0.98687887  0.22642923  0.97081197    -0.54900
O853        O  0.54931358  0.20002605  0.92834465    -0.58200
In854      In  0.77150055  0.08151951  0.93556752     1.36900
C855        C  0.75419779  0.14019179  0.90639899     0.79500
O856        O  0.81577556  0.11712784  0.95213296    -0.59000
O857        O  0.83111624  0.07041054  0.92668736    -0.49900
C858        C  0.76051834  0.04361849  0.98348414     0.72100
O859        O  0.74934060  0.07618590  0.98087546    -0.44700
C860        C  0.72228720  0.04521562  0.90627028     0.76900
O861        O  0.74711788  0.13804352  0.93337396    -0.56600
O862        O  0.75595186  0.04406864  0.89887749    -0.46700
O863        O  0.77059917  0.11309692  0.89533537    -0.53000
C864        C  0.84122894  0.09887352  0.94024849     0.87000
O865        O  0.77874105  0.03132196  0.96206937    -0.54900
O866        O  0.71476780  0.06370546  0.92871336    -0.58200
In867      In  0.74828063  0.40402634  0.57565564     1.36900
C868        C  0.77825863  0.34096757  0.58976781     0.79500
O869        O  0.79717491  0.43671794  0.58560344    -0.59000
O870        O  0.75827049  0.43021775  0.61982061    -0.49900
C871        C  0.75369380  0.44402549  0.52807700     0.72100
O872        O  0.76329871  0.41084751  0.52832769    -0.44700
C873        C  0.67746635  0.38968330  0.57576747     0.76900
O874        O  0.78932421  0.35880957  0.56802372    -0.56600
O875        O  0.69038730  0.41743451  0.58843771    -0.46700
O876        O  0.75116875  0.35453857  0.60306492    -0.53000
C877        C  0.78853505  0.44355516  0.61143657     0.87000
O878        O  0.73969181  0.45554012  0.55148363    -0.54900
O879        O  0.70059296  0.37015271  0.56238008    -0.58200
In880      In  0.51788737  0.32146116  0.58375906     1.36900
C881        C  0.99470558  0.38076296  0.60544380     0.79500
O882        O  0.96560293  0.30336690  0.60881746    -0.59000
O883        O  0.49723350  0.29390656  0.62446546    -0.49900
C884        C  0.51627373  0.27265037  0.54160731     0.72100
O885        O  0.50293531  0.30435883  0.53872188    -0.44700
C886        C  0.58819463  0.33663271  0.58239605     0.76900
O887        O  0.98768695  0.36947218  0.58011938    -0.56600
O888        O  0.57495939  0.31274946  0.59929525    -0.46700
O889        O  0.51153678  0.36433959  0.61650843    -0.53000
C890        C  0.97981016  0.28224581  0.62681286     0.87000
O891        O  0.53142518  0.26684118  0.56552207    -0.54900
O892        O  0.56551089  0.35192523  0.56607376    -0.58200
In893      In  0.68281503  0.27140598  0.83828199     1.36900
C894        C  0.61709403  0.24640868  0.85219327     0.79500
O895        O  0.70562752  0.21828571  0.85123134    -0.59000
O896        O  0.70886011  0.26187215  0.88181984    -0.49900
C897        C  0.73056414  0.26755425  0.79461914     0.72100
O898        O  0.69903199  0.25309320  0.79326151    -0.44700
C899        C  0.66332830  0.34013556  0.83421186     0.76900
O900        O  0.63186062  0.23874213  0.82789652    -0.56600
O901        O  0.68942884  0.33051994  0.85018567    -0.46700
O902        O  0.63572434  0.26717070  0.86822281    -0.53000
C903        C  0.71483309  0.22854334  0.87621531     0.87000
O904        O  0.73700603  0.28430042  0.81793631    -0.54900
O905        O  0.64850922  0.31488695  0.81983665    -0.58200
In906      In  0.58633507  0.49276259  0.82583116     1.36900
C907        C  0.65423472  0.01848674  0.84836179     0.79500
O908        O  0.57059620  0.05471499  0.83373638    -0.59000
O909        O  0.55230546  0.51155345  0.86439280    -0.49900
C910        C  0.54429171  0.49765938  0.77984448     0.72100
O911        O  0.58517491  0.01551912  0.78046379    -0.44700
C912        C  0.60250809  0.42317716  0.82754365     0.76900
O913        O  0.64691789  0.02382853  0.82196492    -0.56600
O914        O  0.57587299  0.43616821  0.84212663    -0.46700
O915        O  0.62633932  0.49916026  0.86050253    -0.53000
C916        C  0.55409030  0.04811174  0.85724169     0.87000
O917        O  0.53357946  0.48275672  0.80302967    -0.54900
O918        O  0.61877356  0.44522869  0.81092802    -0.58200
In919      In  0.92886841  0.00635742  0.67915210     1.36900
C920        C  0.85375109  0.47510839  0.66953990     0.79500
O921        O  0.89764030  0.05423671  0.69678668    -0.59000
O922        O  0.93086619  0.06190980  0.65908141    -0.49900
C923        C  0.96953609  0.00378388  0.72615561     0.72100
O924        O  0.92587774  0.48864059  0.73436296    -0.44700
C925        C  0.95645406  0.44912098  0.66048870     0.76900
O926        O  0.86228632  0.47322774  0.69596495    -0.56600
O927        O  0.96664452  0.99496234  0.64104949    -0.46700
O928        O  0.88865232  0.99633188  0.64506404    -0.53000
C929        C  0.90790849  0.07540431  0.67684553     0.87000
O930        O  0.98020939  0.01939469  0.70325515    -0.54900
O931        O  0.93943415  0.44398645  0.68399758    -0.58200
In932      In  0.83280647  0.23228870  0.68310127     1.36900
C933        C  0.89763795  0.26211193  0.67314741     0.79500
O934        O  0.85476080  0.18777112  0.71078798    -0.59000
O935        O  0.84466953  0.17591921  0.66640123    -0.49900
C936        C  0.78248411  0.24096794  0.72474144     0.72100
O937        O  0.81392110  0.25552541  0.72615079    -0.44700
C938        C  0.79917108  0.26419984  0.63958548     0.76900
O939        O  0.87627837  0.27446221  0.69269043    -0.56600
O940        O  0.79432458  0.23080617  0.64503552    -0.46700
O941        O  0.88655204  0.23376235  0.66038970    -0.53000
C942        C  0.85657591  0.16486409  0.69032722     0.87000
O943        O  0.77719613  0.22211736  0.70228191    -0.54900
O944        O  0.82078359  0.28057463  0.65619493    -0.58200
C945        C  0.87204485  0.12826656  0.69422457    -0.14500
C946        C  0.89306829  0.11249332  0.67362824    -0.29700
H947        H  0.86778785  0.11497829  0.71490509     0.14500
H948        H  0.89919149  0.12700335  0.65374095     0.15100
C949        C  0.99265727  0.00032518  0.75194141    -0.14500
C950        C  0.52009067  0.50302053  0.75489568    -0.29700
H951        H  0.97016530  0.48567872  0.77915539     0.14500
H952        H  0.54364867  0.02062716  0.73358077     0.15100
C953        C  0.75857130  0.26502853  0.77132740    -0.14500
C954        C  0.75372012  0.24493235  0.74733642    -0.29700
H955        H  0.78433725  0.27931644  0.77446779     0.14500
H956        H  0.72805173  0.23044303  0.74426893     0.15100
C957        C  0.65062117  0.37788636  0.83246287    -0.14500
C958        C  0.61478938  0.38539878  0.83017893    -0.29700
H959        H  0.67059980  0.39981302  0.83404349     0.14500
H960        H  0.59444018  0.36378910  0.83157885     0.15100
C961        C  0.95722411  0.26323158  0.64842133    -0.14500
C962        C  0.93092997  0.28115164  0.66328363    -0.29700
H963        H  0.95834365  0.23364933  0.64871575     0.14500
H964        H  0.93094625  0.31078097  0.66398003     0.15100
C965        C  0.97949973  0.41485723  0.61771845    -0.14500
C966        C  0.97693441  0.41924504  0.64652655    -0.29700
H967        H  0.46907349  0.44082631  0.59673198     0.14500
H968        H  0.98653980  0.39777486  0.66058026     0.15100
C969        C  0.81327304  0.46558171  0.62911074    -0.14500
C970        C  0.81962024  0.46009003  0.65729176    -0.29700
H971        H  0.83152249  0.48329028  0.61683215     0.14500
H972        H  0.80254449  0.44173451  0.66995663     0.15100
C973        C  0.79745939  0.30896408  0.60093616    -0.14500
C974        C  0.77975564  0.28393769  0.61697999    -0.29700
H975        H  0.82721432  0.30924233  0.59999899     0.14500
H976        H  0.75005123  0.28234377  0.61693102     0.15100
C977        C  0.63838615  0.38043095  0.57678999    -0.14500
C978        C  0.62728566  0.34606427  0.58159844    -0.29700
H979        H  0.61849247  0.40226376  0.57516911     0.14500
H980        H  0.64716368  0.32494874  0.58612350     0.15100
C981        C  0.68903741  0.02970007  0.86171329    -0.14500
C982        C  0.69280544  0.02708937  0.89047760    -0.29700
H983        H  0.70748508  0.53577680  0.84235113     0.12900
H984        H  0.67039005  0.01635628  0.90358485     0.15100
C985        C  0.73014244  0.20270150  0.89722806    -0.14500
C986        C  0.74305697  0.17044918  0.88777399    -0.29700
H987        H  0.72953896  0.20937943  0.92014057     0.14500
H988        H  0.74484216  0.16519093  0.86463059     0.15100
C989        C  0.75948068  0.46798572  0.50279668    -0.14500
C990        C  0.75192208  0.02151084  0.00941464    -0.29700
H991        H  0.77059766  0.45605305  0.48300471     0.14500
H992        H  0.73614342  0.03440195  0.02672407     0.15100
C993        C  0.57137945  0.23625893  0.88998855    -0.14500
C994        C  0.58165288  0.23118226  0.86224250    -0.29700
H995        H  0.58865330  0.25232360  0.90420650     0.14500
H996        H  0.56626109  0.21306121  0.84821436     0.15100
C997        C  0.53470210  0.07750658  0.87276638    -0.14500
C998        C  0.53328502  0.08114161  0.90172506    -0.29700
H999        H  0.52478120  0.09949672  0.85937802     0.14500
H1000       H  0.54534487  0.06068403  0.91548334     0.15100
C1001       C  0.49757977  0.25274069  0.00205155    -0.14500
C1002       C  0.51421375  0.24377745  0.51928043    -0.29700
H1003       H  0.02737115  0.22355795  0.03532628     0.14500
H1004       H  0.52909336  0.21865440  0.52289282     0.15100
C1005       C  0.87983035  0.11049725  0.94181972    -0.14500
C1006       C  0.88883164  0.14604711  0.94383554    -0.29700
H1007       H  0.90111763  0.08998088  0.93965990     0.14500
H1008       H  0.86761781  0.16671860  0.94321065     0.15100
In1009     In  0.98521161  0.67644763  0.43180081     1.36900
C1010       C  0.51853099  0.60504349  0.41473441     0.79500
O1011       O  0.94162573  0.64160573  0.45177080    -0.59000
O1012       O  0.92600071  0.67986825  0.41976649    -0.49900
C1013       C  0.99375363  0.72241199  0.47675180     0.72100
O1014       O  0.51020014  0.68509820  0.47264336    -0.44700
C1015       C  0.52806204  0.70351604  0.38652064     0.76900
O1016       O  0.52918709  0.62368850  0.43626012    -0.56600
O1017       O  0.49377944  0.70725070  0.38906866    -0.46700
O1018       O  0.98619313  0.62596725  0.40450945    -0.53000
C1019       C  0.91640217  0.65447979  0.43658821     0.87000
O1020       O  0.97533842  0.72985782  0.45481796    -0.54900
O1021       O  0.54204575  0.68233709  0.40448079    -0.58200
In1022     In  0.76561353  0.57134405  0.43421342     1.36900
C1023       C  0.74888479  0.62930151  0.40431787     0.79500
O1024       O  0.80833075  0.60721425  0.45229916    -0.59000
O1025       O  0.82507380  0.56286187  0.42444977    -0.49900
C1026       C  0.75860118  0.52881091  0.47960339     0.72100
O1027       O  0.74745997  0.56166437  0.47994285    -0.44700
C1028       C  0.71359635  0.53735822  0.40707006     0.76900
O1029       O  0.74095374  0.62746986  0.43122049    -0.56600
O1030       O  0.74677312  0.53492687  0.39841287    -0.46700
O1031       O  0.76596255  0.60224791  0.39372594    -0.53000
C1032       C  0.83415101  0.59084680  0.43909866     0.87000
O1033       O  0.77477680  0.51865163  0.45650406    -0.54900
O1034       O  0.70785599  0.55625149  0.42969467    -0.58200
In1035     In  0.73957055  0.92808359  0.08691130     1.36900
C1036       C  0.77516398  0.86644794  0.09703185     0.79500
O1037       O  0.76531001  0.97786423  0.10596664    -0.59000
O1038       O  0.75205857  0.93538132  0.13485334    -0.49900
C1039       C  0.75302449  0.96464299  0.03795365     0.72100
O1040       O  0.76641631  0.93350667  0.04256236    -0.44700
C1041       C  0.66892005  0.91162883  0.08527490     0.76900
O1042       O  0.79119108  0.89433816  0.08707725    -0.56600
O1043       O  0.68068518  0.93768837  0.10060614    -0.46700
O1044       O  0.74090179  0.86921359  0.09927454    -0.53000
C1045       C  0.76747622  0.96574856  0.13115865     0.87000
O1046       O  0.73167313  0.97597804  0.05764998    -0.54900
O1047       O  0.69284682  0.89567329  0.06999715    -0.58200
In1048     In  0.51561018  0.82950000  0.08356593     1.36900
C1049       C  0.98110271  0.89772081  0.10103665     0.79500
O1050       O  0.95485014  0.80910596  0.08150317    -0.59000
O1051       O  0.49576247  0.80004056  0.12371531    -0.49900
C1052       C  0.51871718  0.78207369  0.04024611     0.72100
O1053       O  0.50301016  0.81275277  0.03787327    -0.44700
C1054       C  0.58429962  0.85095321  0.08557466     0.76900
O1055       O  0.97948711  0.89202817  0.07397814    -0.56600
O1056       O  0.57243829  0.82465574  0.10073249    -0.46700
O1057       O  0.50267428  0.87014494  0.11694677    -0.53000
C1058       C  0.96131938  0.79529414  0.10574896     0.87000
O1059       O  0.53412865  0.77684548  0.06414320    -0.54900
O1060       O  0.56131628  0.86516787  0.06894423    -0.58200
In1061     In  0.67702177  0.75960440  0.33487297     1.36900
C1062       C  0.61262781  0.72808385  0.34398129     0.79500
O1063       O  0.70290463  0.70748195  0.34741862    -0.59000
O1064       O  0.70058760  0.74959717  0.37921832    -0.49900
C1065       C  0.72530445  0.76213405  0.29128831     0.72100
O1066       O  0.69385671  0.74790047  0.28859128    -0.44700
C1067       C  0.65587234  0.82816318  0.33431678     0.76900
O1068       O  0.63293868  0.71936630  0.32260832    -0.56600
O1069       O  0.68169318  0.81760661  0.35017477    -0.46700
O1070       O  0.62452869  0.75385259  0.35946275    -0.53000
C1071       C  0.70928138  0.71705421  0.37309971     0.87000
O1072       O  0.73150139  0.77540884  0.31596047    -0.54900
O1073       O  0.64173702  0.80387810  0.31849700    -0.58200
In1074     In  0.57853958  0.98103462  0.32858716     1.36900
C1075       C  0.64571564  0.50599615  0.35056871     0.79500
O1076       O  0.56866217  0.53730125  0.35203576    -0.59000
O1077       O  0.54962429  0.00353531  0.36823861    -0.49900
C1078       C  0.52876451  0.98233674  0.28763787     0.72100
O1079       O  0.57815802  0.51047603  0.28563014    -0.44700
C1080       C  0.59520863  0.91171845  0.33050183     0.76900
O1081       O  0.63680755  0.51310522  0.32482336    -0.56600
O1082       O  0.56994963  0.92503237  0.34643584    -0.46700
O1083       O  0.62025901  0.98899310  0.36149143    -0.53000
C1084       C  0.54316625  0.52425774  0.36743267     0.87000
O1085       O  0.52335619  0.96737811  0.31184238    -0.54900
O1086       O  0.61014223  0.93345604  0.31281675    -0.58200
In1087     In  0.91917455  0.51346373  0.19142241     1.36900
C1088       C  0.84193820  0.98171258  0.18479312     0.79500
O1089       O  0.88164671  0.55924971  0.20350723    -0.59000
O1090       O  0.93228244  0.57229564  0.18259709    -0.49900
C1091       C  0.95406100  0.50380474  0.24056331     0.72100
O1092       O  0.92175623  0.98955014  0.24335361    -0.44700
C1093       C  0.94206650  0.95689863  0.16239370     0.76900
O1094       O  0.85754235  0.97102489  0.20747878    -0.56600
O1095       O  0.95346513  0.50694706  0.15055101    -0.46700
O1096       O  0.88034049  0.50655215  0.15604556    -0.53000
C1097       C  0.90213177  0.58356399  0.19289761     0.87000
O1098       O  0.96771313  0.52109801  0.21953248    -0.54900
O1099       O  0.92625715  0.94826597  0.18571365    -0.58200
In1100     In  0.82624040  0.73816531  0.17697547     1.36900
C1101       C  0.89157226  0.76078382  0.16060728     0.79500
O1102       O  0.85842816  0.69435653  0.19801171    -0.59000
O1103       O  0.82217713  0.67932625  0.16405947    -0.49900
C1104       C  0.77714886  0.74397933  0.21970289     0.72100
O1105       O  0.80837332  0.75909044  0.22122533    -0.44700
C1106       C  0.79494149  0.78006809  0.13815296     0.76900
O1107       O  0.87895127  0.76830049  0.18570244    -0.56600
O1108       O  0.79146481  0.74570031  0.13748281    -0.46700
O1109       O  0.87128040  0.74080323  0.14516799    -0.53000
C1110       C  0.84551604  0.66926573  0.18230331     0.87000
O1111       O  0.77161467  0.72649379  0.19664344    -0.54900
O1112       O  0.81348256  0.79250379  0.15886347    -0.58200
C1113       C  0.85675455  0.63104278  0.18501195    -0.14500
C1114       C  0.89114720  0.62201351  0.19187785    -0.29700
H1115       H  0.83710828  0.60988901  0.17949249     0.14500
H1116       H  0.91191694  0.64300396  0.19448114     0.15100
C1117       C  0.97496400  0.49573195  0.26678796    -0.14500
C1118       C  0.49884206  0.98527855  0.26660696    -0.29700
H1119       H  0.96978097  0.98365383  0.28566422     0.14500
H1120       H  0.53868986  0.52330103  0.23837125     0.15100
C1121       C  0.75340609  0.76292718  0.26795896    -0.14500
C1122       C  0.74866299  0.74560228  0.24267012    -0.29700
H1123       H  0.77904728  0.77698860  0.27211836     0.14500
H1124       H  0.72313848  0.73118932  0.23876752     0.15100
C1125       C  0.64308299  0.86599100  0.33407341    -0.14500
C1126       C  0.60726438  0.87378265  0.33256091    -0.29700
H1127       H  0.66317934  0.88778739  0.33584077     0.14500
H1128       H  0.58681963  0.85223884  0.33369035     0.15100
C1129       C  0.93324714  0.77344581  0.12048525    -0.14500
C1130       C  0.92626035  0.77581472  0.14903476    -0.29700
H1131       H  0.91405297  0.75931321  0.10653645     0.14500
H1132       H  0.94364268  0.79216749  0.16295533     0.15100
C1133       C  0.96529641  0.92994695  0.11591456    -0.14500
C1134       C  0.95996873  0.92860616  0.14469373    -0.29700
H1135       H  0.46451539  0.94848099  0.09632262     0.14500
H1136       H  0.96669432  0.90378900  0.15614233     0.15100
C1137       C  0.78977050  0.98475351  0.15281074    -0.14500
C1138       C  0.80657830  0.96738993  0.17440369    -0.29700
H1139       H  0.79909786  0.01190108  0.14686501     0.14500
H1140       H  0.79811470  0.94012943  0.18070989     0.15100
C1141       C  0.79514036  0.83493148  0.10841159    -0.14500
C1142       C  0.77777514  0.80448907  0.11721184    -0.29700
H1143       H  0.82393045  0.83878354  0.11330168     0.14500
H1144       H  0.74951944  0.79935478  0.11134055     0.15100
C1145       C  0.63051121  0.89968623  0.08554790    -0.14500
C1146       C  0.62228202  0.86399112  0.08685903    -0.29700
H1147       H  0.60895390  0.92003913  0.08565344     0.14500
H1148       H  0.64386332  0.84405050  0.08966917     0.15100
C1149       C  0.68008351  0.51877159  0.36350739    -0.14500
C1150       C  0.68288207  0.51995380  0.39238051    -0.29700
H1151       H  0.70093959  0.02383591  0.33980371     0.12900
H1152       H  0.65974042  0.51183939  0.40590770     0.15100
C1153       C  0.72430889  0.69133328  0.39434361    -0.14500
C1154       C  0.73791755  0.65920257  0.38524824    -0.29700
H1155       H  0.72281035  0.69798478  0.41724133     0.14500
H1156       H  0.74039010  0.65375662  0.36216879     0.15100
C1157       C  0.76219345  0.98635490  0.01190238    -0.14500
C1158       C  0.75243349  0.50407613  0.50431182    -0.29700
H1159       H  0.77833012  0.97346730  0.99480059     0.14500
H1160       H  0.74116628  0.51583251  0.52411740     0.15100
C1161       C  0.55113445  0.72391765  0.36590907    -0.14500
C1162       C  0.57951587  0.70757106  0.35237244    -0.29700
H1163       H  0.54849261  0.75339661  0.36557738     0.14500
H1164       H  0.58102821  0.67799862  0.35157982     0.15100
C1165       C  0.52128796  0.54759874  0.38699966    -0.14500
C1166       C  0.53767689  0.57207707  0.40433023    -0.29700
H1167       H  0.49176877  0.54786681  0.38444247     0.14500
H1168       H  0.56696773  0.57035547  0.40791909     0.15100
C1169       C  0.50125035  0.74497292  0.49494030    -0.14500
C1170       C  0.51853192  0.75345651  0.01755451    -0.29700
H1171       H  0.98354280  0.77471687  0.49958537     0.14500
H1172       H  0.53484673  0.72918701  0.02094782     0.15100
C1173       C  0.87195345  0.60449934  0.43991814    -0.14500
C1174       C  0.87877293  0.64040992  0.43790557    -0.29700
H1175       H  0.89435646  0.58506666  0.43974495     0.14500
H1176       H  0.85639763  0.65939469  0.43481889     0.15100
In1177     In  0.99446636  0.68158882  0.92671542     1.36900
C1178       C  0.51781356  0.61355402  0.91135563     0.79500
O1179       O  0.94798511  0.64944861  0.94571229    -0.59000
O1180       O  0.93668517  0.68451298  0.91054603    -0.49900
C1181       C  0.00579109  0.72166157  0.97433396     0.72100
O1182       O  0.51068356  0.69543770  0.97437963    -0.44700
C1183       C  0.55041799  0.70957415  0.89980862     0.76900
O1184       O  0.52049232  0.62294828  0.93778901    -0.56600
O1185       O  0.51832078  0.70830143  0.88958854    -0.46700
O1186       O  0.99484029  0.62797204  0.90366031    -0.53000
C1187       C  0.92469437  0.66122511  0.92828545     0.87000
O1188       O  0.98917878  0.73321158  0.95267374    -0.54900
O1189       O  0.55410688  0.69538334  0.92435647    -0.58200
In1190     In  0.77098835  0.58139008  0.92692308     1.36900
C1191       C  0.75270398  0.63933432  0.89733218     0.79500
O1192       O  0.81529311  0.61749452  0.94242912    -0.59000
O1193       O  0.83011804  0.57150666  0.91584665    -0.49900
C1194       C  0.76293829  0.54156313  0.97425254     0.72100
O1195       O  0.75199758  0.57440925  0.97312585    -0.44700
C1196       C  0.72015940  0.54522409  0.89976935     0.76900
O1197       O  0.74776776  0.63846170  0.92466097    -0.56600
O1198       O  0.75342842  0.54357210  0.89128427    -0.46700
O1199       O  0.76718623  0.61127079  0.88612723    -0.53000
C1200       C  0.84034408  0.60000024  0.92930935     0.87000
O1201       O  0.77951356  0.53016341  0.95172239    -0.54900
O1202       O  0.71380263  0.56453915  0.92204270    -0.58200
In1203     In  0.75579191  0.90534013  0.57059092     1.36900
C1204       C  0.78755366  0.84256885  0.58350066     0.79500
O1205       O  0.80716508  0.93590444  0.57744957    -0.59000
O1206       O  0.76962388  0.93390020  0.61298861    -0.49900
C1207       C  0.75667876  0.94524301  0.52247400     0.72100
O1208       O  0.76535868  0.91183114  0.52246374    -0.44700
C1209       C  0.68540036  0.88808381  0.57608257     0.76900
O1210       O  0.79496984  0.85898619  0.56017049    -0.56600
O1211       O  0.69878844  0.91629080  0.58782368    -0.46700
O1212       O  0.76373521  0.85780272  0.59935034    -0.53000
C1213       C  0.80029547  0.94470139  0.60326025     0.87000
O1214       O  0.74549559  0.95735667  0.54663312    -0.54900
O1215       O  0.70764052  0.86976756  0.56078841    -0.58200
In1216     In  0.52841772  0.81250296  0.58678403     1.36900
C1217       C  0.01311194  0.87214094  0.62095837     0.79500
O1218       O  0.97880981  0.79648287  0.60860566    -0.59000
O1219       O  0.50790875  0.77789582  0.62363210    -0.49900
C1220       C  0.52636851  0.76809172  0.54130781     0.72100
O1221       O  0.51195430  0.79967769  0.54086223    -0.44700
C1222       C  0.59795848  0.83124124  0.58407867     0.76900
O1223       O  0.00662649  0.86757973  0.59417248    -0.56600
O1224       O  0.58701070  0.80399667  0.59867121    -0.46700
O1225       O  0.52149809  0.84526462  0.62643760    -0.53000
C1226       C  0.99037913  0.77497975  0.62763098     0.87000
O1227       O  0.54314570  0.76062452  0.56426574    -0.54900
O1228       O  0.57331691  0.84826850  0.57078183    -0.58200
In1229     In  0.68566170  0.77372124  0.83014671     1.36900
C1230       C  0.62147951  0.74649683  0.84595430     0.79500
O1231       O  0.70850493  0.71993986  0.84172439    -0.59000
O1232       O  0.71509819  0.76343935  0.87204462    -0.49900
C1233       C  0.73195810  0.77100678  0.78516766     0.72100
O1234       O  0.70094705  0.75537110  0.78465980    -0.44700
C1235       C  0.66518092  0.84283575  0.83067171     0.76900
O1236       O  0.63221657  0.74489963  0.81973095    -0.56600
O1237       O  0.69268001  0.83196848  0.84449284    -0.46700
O1238       O  0.64327808  0.76227473  0.86292388    -0.53000
C1239       C  0.71953607  0.72990439  0.86633436     0.87000
O1240       O  0.73835033  0.78857821  0.80808359    -0.54900
O1241       O  0.64894703  0.81858165  0.81619606    -0.58200
In1242     In  0.59072979  0.99856146  0.82688878     1.36900
C1243       C  0.65100771  0.51298545  0.84456701     0.79500
O1244       O  0.57013258  0.54983306  0.83238217    -0.59000
O1245       O  0.55549895  0.01527108  0.86552108    -0.49900
C1246       C  0.55308310  0.00259166  0.77829389     0.72100
O1247       O  0.57731537  0.50840445  0.77969411    -0.44700
C1248       C  0.60674626  0.92858952  0.82767642     0.76900
O1249       O  0.64272246  0.51644791  0.81816326    -0.56600
O1250       O  0.57797696  0.94089194  0.83987758    -0.46700
O1251       O  0.62906534  0.00336539  0.86300503    -0.53000
C1252       C  0.55292041  0.54432254  0.85577152     0.87000
O1253       O  0.54109399  0.98652961  0.80058855    -0.54900
O1254       O  0.62591756  0.95178492  0.81425420    -0.58200
In1255     In  0.91767668  0.50017486  0.68740214     1.36900
C1256       C  0.86610633  0.97902229  0.66062038     0.79500
O1257       O  0.88777043  0.55059550  0.70059964    -0.59000
O1258       O  0.92436586  0.55315765  0.66420624    -0.49900
C1259       C  0.95800925  0.50177401  0.73458987     0.72100
O1260       O  0.93743964  0.99069884  0.72533175    -0.44700
C1261       C  0.96898156  0.96135690  0.64677965     0.76900
O1262       O  0.87529120  0.97575916  0.68679536    -0.56600
O1263       O  0.95426141  0.48107122  0.65046048    -0.46700
O1264       O  0.87762755  0.48974830  0.65345180    -0.53000
C1265       C  0.90079159  0.56925651  0.68000267     0.87000
O1266       O  0.96854904  0.51607349  0.71109768    -0.54900
O1267       O  0.95198303  0.95158668  0.66940635    -0.58200
In1268     In  0.83635036  0.73047970  0.67598243     1.36900
C1269       C  0.90345290  0.75636905  0.66919853     0.79500
O1270       O  0.85321827  0.68682262  0.70638620    -0.59000
O1271       O  0.84637565  0.67265642  0.66193914    -0.49900
C1272       C  0.78429913  0.74288739  0.71577077     0.72100
O1273       O  0.81616543  0.75633620  0.71773041    -0.44700
C1274       C  0.80735281  0.76272569  0.63033612     0.76900
O1275       O  0.88045829  0.77130010  0.68625985    -0.56600
O1276       O  0.80014955  0.72988729  0.63636639    -0.46700
O1277       O  0.89270196  0.72726301  0.65731062    -0.53000
C1278       C  0.85541640  0.66258135  0.68696171     0.87000
O1279       O  0.77927432  0.72360712  0.69349497    -0.54900
O1280       O  0.82965411  0.77802994  0.64697745    -0.58200
C1281       C  0.86826926  0.62562580  0.69328882    -0.14500
C1282       C  0.88834221  0.60652636  0.67399332    -0.29700
H1283       H  0.86304185  0.61483590  0.71476531     0.14500
H1284       H  0.89567635  0.61845517  0.65327161     0.15100
C1285       C  0.98168188  0.49887348  0.76014500    -0.14500
C1286       C  0.53106939  0.00684914  0.75190083    -0.29700
H1287       H  0.98020327  0.98833688  0.77110230     0.14500
H1288       H  0.53229845  0.51424683  0.73534978     0.15100
C1289       C  0.75971119  0.76856710  0.76162386    -0.14500
C1290       C  0.75495899  0.74813918  0.73778185    -0.29700
H1291       H  0.78553589  0.78278042  0.76470299     0.14500
H1292       H  0.72920707  0.73381583  0.73469038     0.15100
C1293       C  0.65323795  0.88105435  0.83097832    -0.14500
C1294       C  0.61771027  0.89012799  0.82904246    -0.29700
H1295       H  0.67391963  0.90217115  0.83347118     0.14500
H1296       H  0.59660740  0.86918814  0.82926066     0.15100
C1297       C  0.96460994  0.75522369  0.64643638    -0.14500
C1298       C  0.93843131  0.77363196  0.66103680    -0.29700
H1299       H  0.96372904  0.72567988  0.64481679     0.14500
H1300       H  0.94045350  0.80308926  0.66328034     0.15100
C1301       C  0.99879598  0.90261035  0.63864081    -0.14500
C1302       C  0.98856409  0.93486594  0.62799581    -0.29700
H1303       H  0.48751351  0.89658962  0.65437920     0.14500
H1304       H  0.99330635  0.94119193  0.60535999     0.15100
C1305       C  0.82722060  0.96586498  0.61961163    -0.14500
C1306       C  0.83259613  0.96290571  0.64819395    -0.29700
H1307       H  0.84669426  0.98121186  0.60649841     0.14500
H1308       H  0.81449412  0.94635287  0.66154828     0.15100
C1309       C  0.80694634  0.80989595  0.59324508    -0.14500
C1310       C  0.78901804  0.78341015  0.60760499    -0.29700
H1311       H  0.83668708  0.81086002  0.59325111     0.14500
H1312       H  0.75937982  0.78143667  0.60651670     0.15100
C1313       C  0.64671969  0.87734586  0.57976318    -0.14500
C1314       C  0.63678573  0.84214548  0.58218625    -0.29700
H1315       H  0.62617950  0.89865764  0.58135996     0.14500
H1316       H  0.65755901  0.82107708  0.58331463     0.15100
C1317       C  0.68619038  0.52517644  0.85662074    -0.14500
C1318       C  0.68988384  0.52658975  0.88544782    -0.29700
H1319       H  0.71010345  0.04273011  0.84856192     0.12900
H1320       H  0.66722505  0.51833926  0.89942103     0.15100
C1321       C  0.73460774  0.70360748  0.88713307    -0.14500
C1322       C  0.74124390  0.66921973  0.87848192    -0.29700
H1323       H  0.73885820  0.71188402  0.90942525     0.14500
H1324       H  0.73824237  0.66206987  0.85579128     0.15100
C1325       C  0.76075663  0.96848499  0.49646531    -0.14500
C1326       C  0.75624867  0.51810949  0.99985139    -0.29700
H1327       H  0.77014836  0.95555299  0.47651853     0.14500
H1328       H  0.74529955  0.53083617  0.01938578     0.15100
C1329       C  0.58210741  0.72673458  0.88555277    -0.14500
C1330       C  0.58664842  0.73078354  0.85685810    -0.29700
H1331       H  0.60427751  0.73429300  0.89987482     0.14500
H1332       H  0.56596625  0.72135173  0.84188121     0.15100
C1333       C  0.53485394  0.57489074  0.87061536    -0.14500
C1334       C  0.53128168  0.57851412  0.89944535    -0.29700
H1335       H  0.52762649  0.59752849  0.85680564     0.14500
H1336       H  0.54069070  0.55733202  0.91381235     0.15100
C1337       C  0.49779208  0.75583123  0.99395379    -0.14500
C1338       C  0.52334353  0.74069942  0.51763005    -0.29700
H1339       H  0.02460648  0.73161941  0.01878447     0.14500
H1340       H  0.53864165  0.71551757  0.51965582     0.15100
C1341       C  0.87860729  0.61257317  0.92943829    -0.14500
C1342       C  0.88661032  0.64833271  0.92840495    -0.29700
H1343       H  0.90040415  0.59247072  0.92885165     0.14500
H1344       H  0.86492223  0.66823214  0.92590743     0.15100
loop_ 
_geom_bond_atom_site_label_1 
_geom_bond_atom_site_label_2 
_geom_bond_distance 
_geom_bond_site_symmetry_2 
_ccdc_geom_bond_type 
In1           O3   2.213       .  S
In1           O4   2.240       .  S
In1          O12   2.223       .  S
In1          O10   2.184       .  S
In1         O678   2.246       .  S
In1         O680   2.263       .  S
In1         O681   2.266       .  S
In1         O685   2.195       .  S
C2            O8   1.265       .  A
C2          O682   1.260   1_455  A
C2          C158   1.474       .  S
O3           C11   1.263       .  A
O4           C11   1.269       .  A
C5           O12   1.263       .  A
C5          O678   1.271       .  A
C5          C833   1.476       .  S
O6         In673   2.280   1_455  S
O6          C677   1.264       .  A
C7            O9   1.255       .  A
C7           O13   1.257       .  A
C7          C153   1.474       .  S
O8         In673   2.255   1_455  S
O9         In673   2.245   1_455  S
O10         C674   1.264       .  A
C11         C166   1.468       .  S
O13        In673   2.283   1_455  S
In14         O16   2.226       .  S
In14         O17   2.238       .  S
In14         O25   2.232       .  S
In14         O19   2.273       .  S
In14         O21   2.263       .  S
In14         O22   2.251       .  S
In14         O23   2.203       .  S
In14         O26   2.205       .  S
C15          O21   1.273       .  A
C15          O23   1.263       .  A
C15         C146   1.470       .  S
O16          C24   1.261       .  A
O17          C24   1.264       .  A
C18          O25   1.259       .  A
C18          O19   1.268       .  A
C18         C150   1.483       .  S
C20          O22   1.266       .  A
C20          O26   1.262       .  A
C20         C142   1.463       .  S
C24         C165   1.465       .  S
In27         O29   2.205       .  S
In27         O30   2.254       .  S
In27         O38   2.239       .  S
In27         O32   2.244       .  S
In27         O34   2.269       .  S
In27         O35   2.254       .  S
In27         O36   2.193       .  S
In27         O39   2.220       .  S
C28          O34   1.269       .  A
C28          O36   1.261       .  A
C28         C133   1.477       .  S
O29          C37   1.261       .  A
O30          C37   1.268       .  A
C31          O38   1.263       .  A
C31          O32   1.267       .  A
C31         C149   1.477       .  S
C33          O35   1.266       .  A
C33          O39   1.260       .  A
C33         C137   1.471       .  S
C37         C129   1.463       .  S
In40         O43   2.255       .  S
In40         O51   2.235       .  S
In40         O45   2.267   1_455  S
In40         O48   2.245       .  S
In40         O49   2.207       .  S
In40         O52   2.227       .  S
In40        O714   2.210   1_455  S
In40        O719   2.251   1_455  S
C41          O47   1.276       .  A
C41         O721   1.267       .  A
C41         C125   1.471       .  S
O42        In712   2.184       .  S
O42          C50   1.267       .  A
O43         C722   1.269   1_455  A
C44          O51   1.261       .  A
C44          O45   1.269   1_455  A
C44         C162   1.485       .  S
C46          O48   1.267       .  A
C46          O52   1.262       .  A
C46         C138   1.470       .  S
O47        In712   2.251       .  S
O49         C713   1.264       .  A
C50         O715   1.275       .  A
C50         C121   1.465       .  S
In53         O55   2.217       .  S
In53         O56   2.269       .  S
In53         O64   2.234       .  S
In53         O58   2.270       .  S
In53         O60   2.273       .  S
In53         O61   2.243       .  S
In53         O62   2.207       .  S
In53         O65   2.236       .  S
C54          O60   1.269       .  A
C54          O62   1.261       .  A
C54         C154   1.479       .  S
O55          C63   1.260       .  A
O56          C63   1.264       .  A
C57          O64   1.261       .  A
C57          O58   1.269       .  A
C57         C113   1.482       .  S
C59          O61   1.266       .  A
C59          O65   1.263       .  A
C59         C117   1.470       .  S
C63         C145   1.477       .  S
In66         O69   2.257       .  S
In66         O77   2.225       .  S
In66         O74   2.254       .  S
In66         O75   2.203       .  S
In66         O78   2.215       .  S
In66        O404   2.212       .  S
In66        O407   2.252       .  S
In66        O409   2.242       .  S
C67          O73   1.265       .  A
C67         O411   1.259   1_545  A
C67         C141   1.466       .  S
O68        In402   2.230   1_545  S
O68          C76   1.257       .  A
O69         C412   1.270       .  A
C70          O77   1.262       .  A
C70         O407   1.268       .  A
C70         C110   1.475       .  S
O71        In402   2.258   1_545  S
O71         C406   1.263   1_545  A
C72          O74   1.270       .  A
C72          O78   1.262       .  A
C72         C118   1.473       .  S
O73        In402   2.251   1_545  S
O75         C403   1.265       .  A
C76         O405   1.264   1_545  A
C76         C157   1.474       .  S
In79         O81   2.212       .  S
In79         O82   2.233       .  S
In79         O90   2.226       .  S
In79         O87   2.259   1_545  S
In79         O88   2.179       .  S
In79        O420   2.236   1_545  S
In79        O422   2.262   1_545  S
In79        O427   2.183   1_545  S
C80          O86   1.267       .  A
C80         O424   1.262       .  A
C80         C130   1.474       .  S
O81          C89   1.264       .  A
O82          C89   1.270       .  A
C83          O90   1.267       .  A
C83         O420   1.272   1_545  A
C83         C109   1.479       .  S
O84        In415   2.247       .  S
O84         C419   1.264       .  A
C85          O91   1.261       .  A
C85         O423   1.267       .  A
C85         C126   1.478       .  S
O86        In415   2.257       .  S
O87         C421   1.273       .  A
O88         C416   1.264   1_545  A
C89         C106   1.465       .  S
O91        In415   2.206       .  S
In92         O94   2.206       .  S
In92         O95   2.241       .  S
In92        O103   2.240       .  S
In92         O97   2.246       .  S
In92         O99   2.266       .  S
In92        O100   2.256       .  S
In92        O101   2.189       .  S
In92        O104   2.190       .  S
C93          O99   1.271       .  A
C93         O101   1.263       .  A
C93         C122   1.477       .  S
O94         C102   1.265       .  A
O95         C102   1.269       .  A
C96         O103   1.265       .  A
C96          O97   1.270       .  A
C96         C114   1.483       .  S
C98         O100   1.271       .  A
C98         O104   1.262       .  A
C98         C134   1.464       .  S
C102        C105   1.472       .  S
C105        C106   1.343       .  D
C105        H107   1.086       .  S
C106        H108   1.086       .  S
C109       C1118   1.342   1_545  D
C109        H447   1.086       .  S
C110       C1117   1.348   1_455  D
C110        H448   1.086       .  S
H111        C445   1.086       .  S
H112        C446   1.086       .  S
C113        C114   1.344       .  D
C113        H115   1.087       .  S
C114        H116   1.086       .  S
C117        C118   1.346       .  D
C117        H119   1.087       .  S
C118        H120   1.087       .  S
C121        C122   1.344       .  D
C121        H123   1.087       .  S
C122        H124   1.086       .  S
C125        C126   1.343       .  D
C125        H799   1.087       .  S
C126        H128   1.086       .  S
H127        C797   1.087       .  S
C129        C130   1.342       .  D
C129        H131   1.086       .  S
C130        H132   1.086       .  S
C133        C134   1.343       .  D
C133        H135   1.085       .  S
C134        H136   1.086       .  S
C137        C138   1.345       .  D
C137        H139   1.086       .  S
C138        H140   1.087       .  S
C141        C142   1.343       .  D
C141        H479   1.087       .  S
C142        H144   1.086   1_545  S
H143        C477   1.087       .  S
C145        C146   1.341       .  D
C145        H147   1.086       .  S
C146        H148   1.087       .  S
C149        C654   1.350       .  D
C149        H151   1.086   1_554  S
C150        C653   1.351   1_545  D
C150        H152   1.085       .  S
C153        C154   1.347       .  D
C153        H155   1.087       .  S
C154        H156   1.086       .  S
C157        C158   1.346       .  D
C157        H159   1.086       .  S
C158        H160   1.087       .  S
C161        C677   1.486       .  S
C161        C330   1.352   1_455  D
C161        H835   1.086       .  S
C162        C329   1.351       .  D
C162        H164   1.086   1_455  S
H163        C833   1.087       .  S
C165        C166   1.343       .  D
C165        H167   1.087       .  S
C166        H168   1.087       .  S
In169       O171   2.221       .  S
In169       O172   2.241       .  S
In169       O180   2.230       .  S
In169       O846   2.264       .  S
In169       O848   2.264       .  S
In169       O849   2.264       .  S
In169       O178   2.200       .  S
In169       O853   2.197       .  S
C170        O176   1.269       .  A
C170        O850   1.262       .  A
C170        C326   1.476       .  S
O171        C179   1.264       .  A
O172        C179   1.268       .  A
C173        O180   1.263       .  A
C173        O846   1.271       .  A
C173       C1001   1.483   1_556  S
O174       In841   2.249   1_455  S
O174        C845   1.268       .  A
C175        O177   1.268       .  A
C175        O181   1.260       .  A
C175        C321   1.463       .  S
O176       In841   2.262   1_455  S
O177       In841   2.264   1_455  S
O178        C842   1.264       .  A
C179        C334   1.470       .  S
O181       In841   2.203   1_455  S
In182       O184   2.218       .  S
In182       O185   2.245       .  S
In182       O193   2.223       .  S
In182       O187   2.251       .  S
In182       O189   2.255       .  S
In182       O190   2.245       .  S
In182       O191   2.195       .  S
In182       O194   2.197       .  S
C183        O189   1.273       .  A
C183        O191   1.262       .  A
C183        C314   1.467       .  S
O184        C192   1.263       .  A
O185        C192   1.268       .  A
C186        O193   1.265       .  A
C186        O187   1.271       .  A
C186        C318   1.479   1_556  S
C188        O190   1.271       .  A
C188        O194   1.263       .  A
C188        C310   1.460       .  S
C192        C333   1.471       .  S
In195       O197   2.211       .  S
In195       O198   2.264       .  S
In195       O206   2.226       .  S
In195       O200   2.250       .  S
In195       O202   2.263       .  S
In195       O203   2.251       .  S
In195       O204   2.193       .  S
In195       O207   2.218       .  S
C196        O202   1.269       .  A
C196        O204   1.262       .  A
C196        C301   1.476       .  S
O197        C205   1.260       .  A
O198        C205   1.268       .  A
C199        O206   1.263       .  A
C199        O200   1.268       .  A
C199        C317   1.477       .  S
C201        O203   1.267       .  A
C201        O207   1.261       .  A
C201        C305   1.470       .  S
C205        C297   1.469       .  S
In208       O882   2.219   1_455  S
In208       O211   2.260       .  S
In208       O219   2.264       .  S
In208       O213   2.268   1_455  S
In208       O887   2.256   1_455  S
In208       O216   2.249       .  S
In208       O217   2.220       .  S
In208       O220   2.237       .  S
C209        O215   1.271       .  A
C209        O889   1.264       .  A
C209        C293   1.476       .  S
O210       In880   2.193       .  S
O210        C218   1.261       .  A
O211        C890   1.265   1_455  A
C212        O219   1.259       .  A
C212        O213   1.264   1_455  A
C212        C330   1.485   1_455  S
C214        O216   1.262       .  A
C214        O220   1.259       .  A
C214        C306   1.468       .  S
O215       In880   2.258       .  S
O217        C881   1.264   1_455  A
C218        O883   1.270       .  A
C218        C289   1.465       .  S
In221       O223   2.208       .  S
In221       O224   2.260       .  S
In221       O232   2.221       .  S
In221       O226   2.253       .  S
In221       O228   2.261       .  S
In221       O229   2.238       .  S
In221       O230   2.192       .  S
In221       O233   2.225       .  S
C222        O228   1.271       .  A
C222        O230   1.263       .  A
C222        C322   1.477       .  S
O223        C231   1.263       .  A
O224        C231   1.267       .  A
C225        O232   1.262       .  A
C225        O226   1.271       .  A
C225        C281   1.476       .  S
C227        O229   1.268       .  A
C227        O233   1.264       .  A
C227        C285   1.470       .  S
C231        C313   1.475       .  S
In234       O572   2.227       .  S
In234       O237   2.263       .  S
In234       O245   2.240       .  S
In234       O575   2.269       .  S
In234       O577   2.257       .  S
In234       O242   2.253       .  S
In234       O243   2.207       .  S
In234       O246   2.239       .  S
C235        O241   1.270       .  A
C235        O579   1.261       .  A
C235        C309   1.475       .  S
O236       In570   2.212       .  S
O236        C244   1.260       .  A
O237        C580   1.264       .  A
C238        O245   1.259       .  A
C238        O575   1.264       .  A
C238        C278   1.481       .  S
O239       In570   2.254       .  S
O239        C574   1.268       .  A
C240        O242   1.263       .  A
C240        O246   1.260       .  A
C240        C286   1.471       .  S
O241       In570   2.265       .  S
O243        C571   1.264       .  A
C244        O573   1.266       .  A
C244        C325   1.466       .  S
In247       O249   2.219       .  S
In247       O250   2.257       .  S
In247       O258   2.242       .  S
In247       O588   2.250   1_545  S
In247       O590   2.253   1_545  S
In247       O255   2.272   1_545  S
In247       O256   2.206       .  S
In247       O595   2.208   1_545  S
C248        O254   1.270       .  A
C248        O592   1.263       .  A
C248        C298   1.478       .  S
O249        C257   1.261       .  A
O250        C257   1.268       .  A
C251        O258   1.263       .  A
C251        O588   1.266   1_545  A
C251        C277   1.480   1_545  S
O252       In583   2.256       .  S
O252        C587   1.269       .  A
C253        O591   1.270       .  A
C253        O259   1.261       .  A
C253        C294   1.462       .  S
O254       In583   2.261       .  S
O255        C589   1.269       .  A
O256        C584   1.264   1_545  A
C257        C274   1.472       .  S
O259       In583   2.193       .  S
In260       O262   2.225       .  S
In260       O263   2.242       .  S
In260       O271   2.227       .  S
In260       O265   2.251       .  S
In260       O267   2.270       .  S
In260       O268   2.259       .  S
In260       O269   2.185       .  S
In260       O272   2.200       .  S
C261        O267   1.271       .  A
C261        O269   1.262       .  A
C261        C290   1.479       .  S
O262        C270   1.263       .  A
O263        C270   1.267       .  A
C264        O271   1.262       .  A
C264        O265   1.270       .  A
C264        C282   1.477       .  S
C266        O268   1.268       .  A
C266        O272   1.260       .  A
C266        C302   1.464       .  S
C270        C273   1.470       .  S
C273        C274   1.346       .  D
C273        H275   1.087       .  S
C274        H276   1.087       .  S
C277       C1286   1.349   1_565  D
C277        H615   1.086       .  S
C278       C1285   1.349   1_455  D
C278        H616   1.086       .  S
H279        C613   1.086       .  S
H280        C614   1.086       .  S
C281        C282   1.340       .  D
C281        H283   1.087       .  S
C282        H284   1.087       .  S
C285        C286   1.344       .  D
C285        H287   1.087       .  S
C286        H288   1.087       .  S
C289        C290   1.344       .  D
C289        H291   1.087       .  S
C290        H292   1.086       .  S
C293        C294   1.343       .  D
C293        H967   1.086       .  S
C294        H296   1.087       .  S
H295        C965   1.086       .  S
C297        C298   1.344       .  D
C297        H299   1.087       .  S
C298        H300   1.086       .  S
C301        C302   1.343       .  D
C301        H303   1.086       .  S
C302        H304   1.087       .  S
C305        C306   1.344       .  D
C305        H307   1.087       .  S
C306        H308   1.087       .  S
C309        C310   1.344       .  D
C309        H647   1.086       .  S
C310        H312   1.086       .  S
H311        C645   1.086       .  S
C313        C314   1.341       .  D
C313        H315   1.085       .  S
C314        H316   1.087       .  S
C317        C486   1.348       .  D
C317        H319   1.086       .  S
C318        C485   1.349   1_545  D
C318        H320   1.085       .  S
C321        C322   1.344       .  D
C321        H323   1.087       .  S
C322        H324   1.086       .  S
C325        C326   1.344       .  D
C325        H327   1.087       .  S
C326        H328   1.086       .  S
C329        C845   1.483   1_554  S
C329       H1003   1.086       .  S
C330        H332   1.086       .  S
H331       C1001   1.086   1_556  S
C333        C334   1.345       .  D
C333        H335   1.087       .  S
C334        H336   1.087       .  S
In337       O339   2.244       .  S
In337       O340   2.249       .  S
In337       O348   2.246       .  S
In337      O1014   2.285       .  S
In337      O1016   2.253       .  S
In337      O1017   2.275       .  S
In337       O346   2.229       .  S
In337      O1021   2.227       .  S
C338        O344   1.268       .  A
C338       O1018   1.263   1_455  A
C338        C494   1.472       .  S
O339        C347   1.262       .  A
O340        C347   1.264       .  A
C341        O348   1.257       .  A
C341       O1014   1.266       .  A
C341       C1169   1.485       .  S
O342      In1009   2.278   1_455  S
O342       C1013   1.265   1_455  A
C343        O345   1.263   1_455  A
C343        O349   1.257       .  A
C343        C489   1.466       .  S
O344      In1009   2.249   1_455  S
O345      In1009   2.272       .  S
O346       C1010   1.263       .  A
C347        C502   1.471       .  S
O349      In1009   2.219   1_455  S
In350       O352   2.220       .  S
In350       O353   2.252       .  S
In350       O361   2.231       .  S
In350       O355   2.239       .  S
In350       O357   2.258       .  S
In350       O358   2.255       .  S
In350       O359   2.194       .  S
In350       O362   2.199       .  S
C351        O357   1.272       .  A
C351        O359   1.262       .  A
C351        C482   1.466       .  S
O352        C360   1.262       .  A
O353        C360   1.269       .  A
C354        O361   1.265       .  A
C354        O355   1.268       .  A
C354        C486   1.476       .  S
C356        O358   1.271       .  A
C356        O362   1.264       .  A
C356        C478   1.474       .  S
C360        C501   1.474       .  S
In363       O365   2.195       .  S
In363       O366   2.261       .  S
In363       O374   2.238       .  S
In363       O368   2.249       .  S
In363       O370   2.263       .  S
In363       O371   2.250       .  S
In363       O372   2.203       .  S
In363       O375   2.217       .  S
C364        O370   1.268       .  A
C364        O372   1.262       .  A
C364        C469   1.477       .  S
O365        C373   1.260       .  A
O366        C373   1.268       .  A
C367        O374   1.263       .  A
C367        O368   1.267       .  A
C367        C485   1.478       .  S
C369        O371   1.265       .  A
C369        O375   1.260       .  A
C369        C473   1.467       .  S
C373        C465   1.461       .  S
In376      O1050   2.208   1_455  S
In376       O379   2.259   1_455  S
In376       O387   2.223       .  S
In376       O381   2.246   1_455  S
In376      O1055   2.269   1_455  S
In376       O384   2.238       .  S
In376       O385   2.193   1_455  S
In376       O388   2.219       .  S
C377        O383   1.271       .  A
C377       O1057   1.264       .  A
C377        C461   1.478       .  S
O378      In1048   2.200       .  S
O378        C386   1.262       .  A
O379       C1058   1.267       .  A
C380        O387   1.263       .  A
C380        O381   1.268   1_455  A
C380        C498   1.474       .  S
C382        O384   1.265       .  A
C382        O388   1.261       .  A
C382        C474   1.465       .  S
O383      In1048   2.263       .  S
O385       C1049   1.262       .  A
C386       O1051   1.270       .  A
C386        C457   1.467       .  S
In389       O391   2.207       .  S
In389       O392   2.272       .  S
In389       O400   2.243       .  S
In389       O394   2.254       .  S
In389       O396   2.262       .  S
In389       O397   2.238       .  S
In389       O398   2.219       .  S
In389       O401   2.219       .  S
C390        O396   1.265       .  A
C390        O398   1.258       .  A
C390        C490   1.469       .  S
O391        C399   1.259       .  A
O392        C399   1.264       .  A
C393        O400   1.262       .  A
C393        O394   1.267       .  A
C393        C449   1.481       .  S
C395        O397   1.266       .  A
C395        O401   1.265       .  A
C395        C453   1.471       .  S
C399        C481   1.475       .  S
In402       O405   2.268       .  S
In402       O413   2.252       .  S
In402       O410   2.243       .  S
In402       O411   2.224       .  S
In402       O414   2.232       .  S
C403        O409   1.272       .  A
C403        C477   1.467       .  S
O404        C412   1.263       .  A
C406        O413   1.261       .  A
C406        C446   1.482   1_565  S
C408        O410   1.264       .  A
C408        O414   1.260       .  A
C408        C454   1.466       .  S
C412        C493   1.471       .  S
In415       O417   2.226       .  S
In415       O418   2.259       .  S
In415       O426   2.244       .  S
In415       O423   2.275       .  S
In415       O424   2.208       .  S
C416        O422   1.272       .  A
C416        C466   1.477       .  S
O417        C425   1.260       .  A
O418        C425   1.266       .  A
C419        O426   1.263       .  A
C419        C445   1.477       .  S
C421        O427   1.263       .  A
C421        C462   1.465       .  S
C425        C442   1.471       .  S
In428       O430   2.219       .  S
In428       O431   2.242       .  S
In428       O439   2.225       .  S
In428       O433   2.257       .  S
In428       O435   2.263       .  S
In428       O436   2.256       .  S
In428       O437   2.188       .  S
In428       O440   2.204       .  S
C429        O435   1.273       .  A
C429        O437   1.264       .  A
C429        C458   1.479       .  S
O430        C438   1.264       .  A
O431        C438   1.269       .  A
C432        O439   1.263       .  A
C432        O433   1.271       .  A
C432        C450   1.480       .  S
C434        O436   1.270       .  A
C434        O440   1.263       .  A
C434        C470   1.467       .  S
C438        C441   1.470       .  S
C441        C442   1.346       .  D
C441        H443   1.087       .  S
C442        H444   1.087       .  S
C445        C782   1.347       .  D
C446        C781   1.347   1_445  D
C449        C450   1.343       .  D
C449        H451   1.086       .  S
C450        H452   1.087       .  S
C453        C454   1.342       .  D
C453        H455   1.087       .  S
C454        H456   1.086       .  S
C457        C458   1.345       .  D
C457        H459   1.087       .  S
C458        H460   1.086       .  S
C461        C462   1.343       .  D
C461       H1135   1.086       .  S
C462        H464   1.087       .  S
H463       C1133   1.086       .  S
C465        C466   1.344       .  D
C465        H467   1.087       .  S
C466        H468   1.086       .  S
C469        C470   1.344       .  D
C469        H471   1.086       .  S
C470        H472   1.087       .  S
C473        C474   1.343       .  D
C473        H475   1.087       .  S
C474        H476   1.087       .  S
C477        C478   1.341       .  D
C478        H480   1.086       .  S
C481        C482   1.341       .  D
C481        H483   1.086       .  S
C482        H484   1.087       .  S
C485        H487   1.086   1_554  S
C486        H488   1.085       .  S
C489        C490   1.342       .  D
C489        H491   1.086       .  S
C490        H492   1.087       .  S
C493        C494   1.344       .  D
C493        H495   1.086   1_455  S
C494        H496   1.087       .  S
C497       C1013   1.485       .  S
C497        C666   1.342   1_655  D
C497       H1171   1.086       .  S
C498        C665   1.348       .  D
C498        H500   1.086   1_454  S
H499       C1169   1.086       .  S
C501        C502   1.346       .  D
C501        H503   1.087       .  S
C502        H504   1.087       .  S
In505       O507   2.223       .  S
In505       O508   2.240       .  S
In505       O516   2.222       .  S
In505      O1182   2.255       .  S
In505      O1184   2.261       .  S
In505      O1185   2.263       .  S
In505       O514   2.185       .  S
In505      O1189   2.197       .  S
C506        O512   1.267       .  A
C506       O1186   1.264   1_455  A
C506        C662   1.470       .  S
O507        C515   1.265       .  A
O508        C515   1.269       .  A
C509        O516   1.263       .  A
C509       O1182   1.272       .  A
C509       C1337   1.478       .  S
O510      In1177   2.269   1_455  S
O510       C1181   1.261       .  A
C511        O513   1.260   1_455  A
C511        O517   1.253       .  A
C511        C657   1.471       .  S
O512      In1177   2.247   1_455  S
O513      In1177   2.279       .  S
O514       C1178   1.265       .  A
C515        C670   1.471       .  S
O517      In1177   2.237   1_455  S
In518       O520   2.227       .  S
In518       O521   2.247       .  S
In518       O529   2.221       .  S
In518       O523   2.254       .  S
In518       O525   2.262       .  S
In518       O526   2.252       .  S
In518       O527   2.188       .  S
In518       O530   2.202       .  S
C519        O525   1.273       .  A
C519        O527   1.262       .  A
C519        C650   1.466       .  S
O520        C528   1.263       .  A
O521        C528   1.268       .  A
C522        O529   1.264       .  A
C522        O523   1.271       .  A
C522        C654   1.480   1_556  S
C524        O526   1.271       .  A
C524        O530   1.263       .  A
C524        C646   1.464       .  S
C528        C669   1.473       .  S
In531       O533   2.211       .  S
In531       O534   2.262       .  S
In531       O542   2.243       .  S
In531       O536   2.250       .  S
In531       O538   2.271       .  S
In531       O539   2.250       .  S
In531       O540   2.195       .  S
In531       O543   2.220       .  S
C532        O538   1.270       .  A
C532        O540   1.262       .  A
C532        C637   1.479       .  S
O533        C541   1.260       .  A
O534        C541   1.268       .  A
C535        O542   1.263       .  A
C535        O536   1.268       .  A
C535        C653   1.481       .  S
C537        O539   1.267       .  A
C537        O543   1.261       .  A
C537        C641   1.469       .  S
C541        C633   1.467       .  S
In544      O1218   2.205   1_455  S
In544       O547   2.250       .  S
In544       O555   2.229       .  S
In544       O549   2.275       .  S
In544      O1223   2.257       .  S
In544       O552   2.241       .  S
In544       O553   2.208       .  S
In544       O556   2.223       .  S
C545        O551   1.275       .  A
C545       O1225   1.264       .  A
C545        C629   1.472       .  S
O546      In1216   2.193       .  S
O546        C554   1.264       .  A
O547       C1226   1.270   1_455  A
C548        O555   1.261       .  A
C548        O549   1.272       .  A
C548        C666   1.484       .  S
C550        O552   1.268       .  A
C550        O556   1.264       .  A
C550        C642   1.470       .  S
O551      In1216   2.264       .  S
O553       C1217   1.264       .  A
C554       O1219   1.273       .  A
C554        C625   1.464       .  S
In557       O559   2.197       .  S
In557       O560   2.278       .  S
In557       O568   2.242       .  S
In557       O562   2.262       .  S
In557       O564   2.252       .  S
In557       O565   2.235       .  S
In557       O566   2.224       .  S
In557       O569   2.225       .  S
C558        O564   1.266       .  A
C558        O566   1.261       .  A
C558        C658   1.470       .  S
O559        C567   1.258       .  A
O560        C567   1.265       .  A
C561        O568   1.260       .  A
C561        O562   1.266       .  A
C561        C617   1.481       .  S
C563        O565   1.265       .  A
C563        O569   1.263       .  A
C563        C621   1.463       .  S
C567        C649   1.477       .  S
In570       O573   2.260       .  S
In570       O581   2.226   1_545  S
In570       O578   2.248   1_545  S
In570       O579   2.197       .  S
In570       O582   2.205   1_545  S
C571        O577   1.269       .  A
C571        C645   1.476       .  S
O572        C580   1.260       .  A
C574        O581   1.264   1_545  A
C574        C614   1.479       .  S
C576        O578   1.267       .  A
C576        O582   1.262       .  A
C576        C622   1.466       .  S
C580        C661   1.469       .  S
In583       O585   2.214       .  S
In583       O586   2.253       .  S
In583       O594   2.228       .  S
In583       O591   2.258       .  S
In583       O592   2.204       .  S
C584        O590   1.269       .  A
C584        C634   1.476       .  S
O585        C593   1.261       .  A
O586        C593   1.267       .  A
C587        O594   1.263       .  A
C587        C613   1.480       .  S
C589        O595   1.262       .  A
C589        C630   1.481       .  S
C593        C610   1.469       .  S
In596       O598   2.219       .  S
In596       O599   2.240       .  S
In596       O607   2.232       .  S
In596       O601   2.257       .  S
In596       O603   2.262       .  S
In596       O604   2.263       .  S
In596       O605   2.185       .  S
In596       O608   2.197       .  S
C597        O603   1.272       .  A
C597        O605   1.263       .  A
C597        C626   1.477       .  S
O598        C606   1.264       .  A
O599        C606   1.268       .  A
C600        O607   1.264       .  A
C600        O601   1.271       .  A
C600        C618   1.481       .  S
C602        O604   1.270       .  A
C602        O608   1.261       .  A
C602        C638   1.466       .  S
C606        C609   1.467       .  S
C609        C610   1.345       .  D
C609        H611   1.087       .  S
C610        H612   1.087       .  S
C613        C950   1.349       .  D
C614        C949   1.348   1_455  D
C617        C618   1.343       .  D
C617        H619   1.087       .  S
C618        H620   1.087       .  S
C621        C622   1.343       .  D
C621        H623   1.087       .  S
C622        H624   1.087       .  S
C625        C626   1.345       .  D
C625        H627   1.087       .  S
C626        H628   1.086       .  S
C629        C630   1.344       .  D
C629       H1303   1.087       .  S
C630        H632   1.086       .  S
H631       C1301   1.087       .  S
C633        C634   1.343       .  D
C633        H635   1.087       .  S
C634        H636   1.086       .  S
C637        C638   1.344       .  D
C637        H639   1.086       .  S
C638        H640   1.087       .  S
C641        C642   1.345       .  D
C641        H643   1.086       .  S
C642        H644   1.087       .  S
C645        C646   1.343       .  D
C646        H648   1.086       .  S
C649        C650   1.342       .  D
C649        H651   1.086       .  S
C650        H652   1.087       .  S
C653        H655   1.086       .  S
C654        H656   1.085       .  S
C657        C658   1.344       .  D
C657        H659   1.086       .  S
C658        H660   1.087       .  S
C661        C662   1.342       .  D
C661        H663   1.086   1_455  S
C662        H664   1.087       .  S
C665       C1181   1.475   1_554  S
C665       H1339   1.086       .  S
C666        H668   1.087       .  S
H667       C1337   1.087       .  S
C669        C670   1.345       .  D
C669        H671   1.087       .  S
C670        H672   1.086       .  S
In673       O675   2.232       .  S
In673       O676   2.259       .  S
In673       O684   2.251       .  S
In673       O682   2.233       .  S
C674        O680   1.271       .  A
C674        C830   1.476       .  S
O675        C683   1.258       .  A
O676        C683   1.262       .  A
C677        O684   1.258   1_455  A
C679        O681   1.270       .  A
C679        O685   1.261       .  A
C679        C825   1.466       .  S
C683        C838   1.468       .  S
In686       O688   2.211       .  S
In686       O689   2.235       .  S
In686       O697   2.235       .  S
In686       O691   2.252       .  S
In686       O693   2.262       .  S
In686       O694   2.252       .  S
In686       O695   2.197       .  S
In686       O698   2.187       .  S
C687        O693   1.275       .  A
C687        O695   1.264       .  A
C687        C818   1.472       .  S
O688        C696   1.265       .  A
O689        C696   1.270       .  A
C690        O697   1.266       .  A
C690        O691   1.272       .  A
C690        C822   1.486       .  S
C692        O694   1.273       .  A
C692        O698   1.264       .  A
C692        C814   1.463       .  S
C696        C837   1.467       .  S
In699       O701   2.205       .  S
In699       O702   2.276       .  S
In699       O710   2.253       .  S
In699       O704   2.260       .  S
In699       O706   2.267       .  S
In699       O707   2.248       .  S
In699       O708   2.233       .  S
In699       O711   2.222       .  S
C700        O706   1.265       .  A
C700        O708   1.258       .  A
C700        C805   1.472       .  S
O701        C709   1.255       .  A
O702        C709   1.264       .  A
C703        O710   1.262       .  A
C703        O704   1.267       .  A
C703        C821   1.485   1_554  S
C705        O707   1.266       .  A
C705        O711   1.262       .  A
C705        C809   1.470       .  S
C709        C801   1.463       .  S
In712       O715   2.249       .  S
In712       O723   2.223       .  S
In712       O717   2.249       .  S
In712       O720   2.229       .  S
In712       O721   2.191       .  S
In712       O724   2.212       .  S
C713        O719   1.272   1_455  A
C713        C797   1.469   1_455  S
O714        C722   1.263       .  A
C716        O723   1.267       .  A
C716        O717   1.275       .  A
C716        C834   1.483       .  S
C718        O720   1.272       .  A
C718        O724   1.268       .  A
C718        C810   1.469       .  S
C722        C793   1.469       .  S
In725       O727   2.214       .  S
In725       O728   2.266       .  S
In725       O736   2.231       .  S
In725       O730   2.260       .  S
In725       O732   2.268       .  S
In725       O733   2.245       .  S
In725       O734   2.197       .  S
In725       O737   2.224       .  S
C726        O732   1.270       .  A
C726        O734   1.263       .  A
C726        C826   1.479       .  S
O727        C735   1.263       .  A
O728        C735   1.267       .  A
C729        O736   1.261       .  A
C729        O730   1.269       .  A
C729        C785   1.480       .  S
C731        O733   1.267       .  A
C731        O737   1.262       .  A
C731        C789   1.468       .  S
C735        C817   1.480       .  S
In738      O1076   2.227       .  S
In738       O741   2.265       .  S
In738       O749   2.242       .  S
In738      O1079   2.263       .  S
In738      O1081   2.252       .  S
In738       O746   2.256       .  S
In738       O747   2.206       .  S
In738       O750   2.232       .  S
C739        O745   1.273       .  A
C739       O1083   1.265   1_545  A
C739        C813   1.478       .  S
O740      In1074   2.189   1_545  S
O740        C748   1.262       .  A
O741       C1084   1.265       .  A
C742        O749   1.259       .  A
C742       O1079   1.263       .  A
C742        C782   1.478       .  S
O743      In1074   2.254       .  S
O743       C1078   1.271       .  A
C744        O746   1.263       .  A
C744        O750   1.259       .  A
C744        C790   1.469       .  S
O745      In1074   2.258   1_545  S
O747       C1075   1.264       .  A
C748       O1077   1.271       .  A
C748        C829   1.463       .  S
In751       O753   2.228       .  S
In751       O754   2.240       .  S
In751       O762   2.248       .  S
In751      O1092   2.244   1_545  S
In751      O1094   2.277   1_545  S
In751       O759   2.273   1_545  S
In751       O760   2.207       .  S
In751      O1099   2.200   1_545  S
C752        O758   1.267       .  A
C752       O1096   1.261       .  A
C752        C802   1.477       .  S
O753        C761   1.262       .  A
O754        C761   1.267       .  A
C755        O762   1.266   1_565  A
C755       O1092   1.267       .  A
C755        C781   1.481       .  S
O756      In1087   2.250       .  S
O756       C1091   1.266       .  A
C757       O1095   1.264       .  A
C757        O763   1.261       .  A
C757        C798   1.474       .  S
O758      In1087   2.272       .  S
O759       C1093   1.267       .  A
O760       C1088   1.259   1_545  A
C761        C778   1.470       .  S
O763      In1087   2.219       .  S
In764       O766   2.235       .  S
In764       O767   2.247       .  S
In764       O775   2.244       .  S
In764       O769   2.268       .  S
In764       O771   2.249       .  S
In764       O772   2.277       .  S
In764       O773   2.231       .  S
In764       O776   2.235       .  S
C765        O771   1.267       .  A
C765        O773   1.261       .  A
C765        C794   1.470       .  S
O766        C774   1.262       .  A
O767        C774   1.264       .  A
C768        O775   1.258       .  A
C768        O769   1.265       .  A
C768        C786   1.480       .  S
C770        O772   1.262       .  A
C770        O776   1.255       .  A
C770        C806   1.472       .  S
C774        C777   1.473       .  S
C777        C778   1.343       .  D
C777        H779   1.086       .  S
C778        H780   1.086       .  S
C781       H1119   1.086       .  S
C782       H1120   1.086       .  S
H783       C1117   1.086       .  S
H784       C1118   1.087       .  S
C785        C786   1.341       .  D
C785        H787   1.087       .  S
C786        H788   1.087       .  S
C789        C790   1.344       .  D
C789        H791   1.087       .  S
C790        H792   1.087       .  S
C793        C794   1.344       .  D
C793        H795   1.086       .  S
C794        H796   1.087       .  S
C797        C798   1.341       .  D
C798        H800   1.086       .  S
C801        C802   1.343       .  D
C801        H803   1.087       .  S
C802        H804   1.086       .  S
C805        C806   1.345       .  D
C805        H807   1.087       .  S
C806        H808   1.086       .  S
C809        C810   1.344       .  D
C809        H811   1.087       .  S
C810        H812   1.087       .  S
C813        C814   1.344       .  D
C813       H1151   1.086       .  S
C814        H816   1.086       .  S
H815       C1149   1.086       .  S
C817        C818   1.343       .  D
C817        H819   1.085       .  S
C818        H820   1.087       .  S
C821       C1326   1.352       .  D
C821        H823   1.086       .  S
C822       C1325   1.352   1_545  D
C822        H824   1.086       .  S
C825        C826   1.344       .  D
C825        H827   1.087       .  S
C826        H828   1.086       .  S
C829        C830   1.343       .  D
C829        H831   1.087       .  S
C830        H832   1.086       .  S
C833       C1002   1.340       .  D
C834       C1001   1.343       .  D
C834        H836   1.086       .  S
C837        C838   1.344       .  D
C837        H839   1.087       .  S
C838        H840   1.087       .  S
In841       O843   2.231       .  S
In841       O844   2.248       .  S
In841       O852   2.246       .  S
In841       O850   2.206   1_655  S
C842        O848   1.272       .  A
C842        C998   1.480       .  S
O843        C851   1.261       .  A
O844        C851   1.267       .  A
C845        O852   1.264   1_455  A
C847        O849   1.270       .  A
C847        O853   1.261       .  A
C847        C993   1.464       .  S
C851       C1006   1.472       .  S
In854       O856   2.217       .  S
In854       O857   2.248       .  S
In854       O865   2.239       .  S
In854       O859   2.245       .  S
In854       O861   2.263       .  S
In854       O862   2.253       .  S
In854       O863   2.200       .  S
In854       O866   2.197       .  S
C855        O861   1.273       .  A
C855        O863   1.263       .  A
C855        C986   1.472       .  S
O856        C864   1.264       .  A
O857        C864   1.270       .  A
C858        O865   1.266       .  A
C858        O859   1.271       .  A
C858        C990   1.482   1_556  S
C860        O862   1.272       .  A
C860        O866   1.263       .  A
C860        C982   1.464       .  S
C864       C1005   1.474       .  S
In867       O869   2.200       .  S
In867       O870   2.284       .  S
In867       O878   2.228       .  S
In867       O872   2.264       .  S
In867       O874   2.261       .  S
In867       O875   2.242       .  S
In867       O876   2.226       .  S
In867       O879   2.227       .  S
C868        O874   1.265       .  A
C868        O876   1.259       .  A
C868        C973   1.470       .  S
O869        C877   1.255       .  A
O870        C877   1.264       .  A
C871        O878   1.261       .  A
C871        O872   1.268       .  A
C871        C989   1.481       .  S
C873        O875   1.264       .  A
C873        O879   1.262       .  A
C873        C977   1.466       .  S
C877        C969   1.464       .  S
In880       O883   2.263       .  S
In880       O891   2.222       .  S
In880       O885   2.245       .  S
In880       O888   2.239       .  S
In880       O889   2.185       .  S
In880       O892   2.215       .  S
C881        O887   1.268       .  A
C881        C965   1.476       .  S
O882        C890   1.260       .  A
C884        O891   1.263       .  A
C884        O885   1.271       .  A
C884       C1002   1.476       .  S
C886        O888   1.269       .  A
C886        O892   1.264       .  A
C886        C978   1.468       .  S
C890        C961   1.466       .  S
In893       O895   2.212       .  S
In893       O896   2.269       .  S
In893       O904   2.230       .  S
In893       O898   2.254       .  S
In893       O900   2.265       .  S
In893       O901   2.246       .  S
In893       O902   2.198       .  S
In893       O905   2.215       .  S
C894        O900   1.269       .  A
C894        O902   1.263       .  A
C894        C994   1.478       .  S
O895        C903   1.262       .  A
O896        C903   1.267       .  A
C897        O904   1.261       .  A
C897        O898   1.268       .  A
C897        C953   1.477       .  S
C899        O901   1.267       .  A
C899        O905   1.261       .  A
C899        C957   1.465       .  S
C903        C985   1.479       .  S
In906      O1244   2.195       .  S
In906       O909   2.263       .  S
In906       O917   2.237       .  S
In906      O1247   2.243       .  S
In906      O1249   2.257       .  S
In906       O914   2.244       .  S
In906       O915   2.195       .  S
In906       O918   2.211       .  S
C907        O913   1.270       .  A
C907       O1251   1.263       .  A
C907        C981   1.477       .  S
O908      In1242   2.208   1_545  S
O908        C916   1.260       .  A
O909       C1252   1.270       .  A
C910        O917   1.264       .  A
C910       O1247   1.268       .  A
C910        C950   1.478       .  S
O911      In1242   2.252   1_545  S
O911       C1246   1.268       .  A
C912        O914   1.268       .  A
C912        O918   1.262       .  A
C912        C958   1.464       .  S
O913      In1242   2.258   1_545  S
O915       C1243   1.263       .  A
C916       O1245   1.268       .  A
C916        C997   1.469       .  S
In919       O921   2.239       .  S
In919       O922   2.247       .  S
In919       O930   2.243       .  S
In919      O1260   2.242   1_545  S
In919      O1262   2.277   1_545  S
In919       O927   2.260   1_545  S
In919       O928   2.198   1_545  S
In919      O1267   2.222   1_545  S
C920        O926   1.268       .  A
C920       O1264   1.260       .  A
C920        C970   1.479       .  S
O921        C929   1.262       .  A
O922        C929   1.265       .  A
C923        O930   1.264       .  A
C923       O1260   1.266   1_545  A
C923        C949   1.477       .  S
O924      In1255   2.240       .  S
O924       C1259   1.267       .  A
C925       O1263   1.267       .  A
C925        O931   1.260       .  A
C925        C966   1.469       .  S
O926      In1255   2.280       .  S
O927       C1261   1.266       .  A
O928       C1256   1.259       .  A
C929        C946   1.475       .  S
O931      In1255   2.215       .  S
In932       O934   2.240       .  S
In932       O935   2.243       .  S
In932       O943   2.236       .  S
In932       O937   2.259       .  S
In932       O939   2.259       .  S
In932       O940   2.268       .  S
In932       O941   2.214       .  S
In932       O944   2.221       .  S
C933        O939   1.267       .  A
C933        O941   1.260       .  A
C933        C962   1.469       .  S
O934        C942   1.262       .  A
O935        C942   1.265       .  A
C936        O943   1.260       .  A
C936        O937   1.267       .  A
C936        C954   1.478       .  S
C938        O940   1.264       .  A
C938        O944   1.257       .  A
C938        C974   1.468       .  S
C942        C945   1.472       .  S
C945        C946   1.343       .  D
C945        H947   1.086       .  S
C946        H948   1.086       .  S
C949       H1287   1.086   1_545  S
C950       H1288   1.086       .  S
H951       C1285   1.086       .  S
H952       C1286   1.086       .  S
C953        C954   1.341       .  D
C953        H955   1.087       .  S
C954        H956   1.087       .  S
C957        C958   1.344       .  D
C957        H959   1.087       .  S
C958        H960   1.087       .  S
C961        C962   1.343       .  D
C961        H963   1.086       .  S
C962        H964   1.087       .  S
C965        C966   1.343       .  D
C966        H968   1.087       .  S
C969        C970   1.344       .  D
C969        H971   1.087       .  S
C970        H972   1.086       .  S
C973        C974   1.343       .  D
C973        H975   1.087       .  S
C974        H976   1.086       .  S
C977        C978   1.342       .  D
C977        H979   1.087       .  S
C978        H980   1.087       .  S
C981        C982   1.343       .  D
C981       H1319   1.086       .  S
C982        H984   1.086       .  S
H983       C1317   1.086       .  S
C985        C986   1.343       .  D
C985        H987   1.086       .  S
C986        H988   1.087       .  S
C989       C1158   1.351       .  D
C989        H991   1.086       .  S
C990       C1157   1.350   1_545  D
C990        H992   1.086       .  S
C993        C994   1.343       .  D
C993        H995   1.087       .  S
C994        H996   1.086       .  S
C997        C998   1.345       .  D
C997        H999   1.087       .  S
C998       H1000   1.086       .  S
C1002      H1004   1.087       .  S
C1005      C1006   1.347       .  D
C1005      H1007   1.087       .  S
C1006      H1008   1.087       .  S
In1009     O1011   2.233       .  S
In1009     O1012   2.244       .  S
In1009     O1020   2.250       .  S
In1009     O1018   2.233       .  S
C1010      O1016   1.268       .  A
C1010      C1166   1.473       .  S
O1011      C1019   1.261       .  A
O1012      C1019   1.264       .  A
C1013      O1020   1.257       .  A
C1015      O1017   1.264       .  A
C1015      O1021   1.257       .  A
C1015      C1161   1.471       .  S
C1019      C1174   1.467       .  S
In1022     O1024   2.207       .  S
In1022     O1025   2.234       .  S
In1022     O1033   2.226       .  S
In1022     O1027   2.238       .  S
In1022     O1029   2.256       .  S
In1022     O1030   2.234       .  S
In1022     O1031   2.196       .  S
In1022     O1034   2.191       .  S
C1023      O1029   1.276       .  A
C1023      O1031   1.265       .  A
C1023      C1154   1.473       .  S
O1024      C1032   1.266       .  A
O1025      C1032   1.271       .  A
C1026      O1033   1.267       .  A
C1026      O1027   1.273       .  A
C1026      C1158   1.479       .  S
C1028      O1030   1.274       .  A
C1028      O1034   1.266       .  A
C1028      C1150   1.462       .  S
C1032      C1173   1.468       .  S
In1035     O1037   2.232       .  S
In1035     O1038   2.283       .  S
In1035     O1046   2.248       .  S
In1035     O1040   2.271       .  S
In1035     O1042   2.259       .  S
In1035     O1043   2.261       .  S
In1035     O1044   2.239       .  S
In1035     O1047   2.224       .  S
C1036      O1042   1.264       .  A
C1036      O1044   1.258       .  A
C1036      C1141   1.474       .  S
O1037      C1045   1.254       .  A
O1038      C1045   1.258       .  A
C1039      O1046   1.260       .  A
C1039      O1040   1.265       .  A
C1039      C1157   1.483       .  S
C1041      O1043   1.263       .  A
C1041      O1047   1.259       .  A
C1041      C1145   1.468       .  S
C1045      C1137   1.470       .  S
In1048     O1051   2.265       .  S
In1048     O1059   2.227       .  S
In1048     O1053   2.249       .  S
In1048     O1056   2.240       .  S
In1048     O1057   2.186       .  S
In1048     O1060   2.219       .  S
C1049      O1055   1.269       .  A
C1049      C1133   1.478       .  S
O1050      C1058   1.260       .  A
C1052      O1059   1.263       .  A
C1052      O1053   1.271       .  A
C1052      C1170   1.478       .  S
C1054      O1056   1.269       .  A
C1054      O1060   1.263       .  A
C1054      C1146   1.468       .  S
C1058      C1129   1.463       .  S
In1061     O1063   2.220       .  S
In1061     O1064   2.268       .  S
In1061     O1072   2.239       .  S
In1061     O1066   2.257       .  S
In1061     O1068   2.256       .  S
In1061     O1069   2.244       .  S
In1061     O1070   2.225       .  S
In1061     O1073   2.221       .  S
C1062      O1068   1.267       .  A
C1062      O1070   1.261       .  A
C1062      C1162   1.471       .  S
O1063      C1071   1.260       .  A
O1064      C1071   1.265       .  A
C1065      O1072   1.260       .  A
C1065      O1066   1.267       .  A
C1065      C1121   1.479       .  S
C1067      O1069   1.266       .  A
C1067      O1073   1.262       .  A
C1067      C1125   1.466       .  S
C1071      C1153   1.480       .  S
In1074     O1077   2.255   1_565  S
In1074     O1085   2.223       .  S
In1074     O1082   2.240       .  S
In1074     O1083   2.186       .  S
In1074     O1086   2.209       .  S
C1075      O1081   1.268       .  A
C1075      C1149   1.472       .  S
O1076      C1084   1.260       .  A
C1078      O1085   1.263       .  A
C1078      C1118   1.478       .  S
C1080      O1082   1.269       .  A
C1080      O1086   1.264       .  A
C1080      C1126   1.465       .  S
C1084      C1165   1.470       .  S
In1087     O1089   2.234       .  S
In1087     O1090   2.248       .  S
In1087     O1098   2.229       .  S
In1087     O1095   2.264       .  S
In1087     O1096   2.193       .  S
C1088      O1094   1.266       .  A
C1088      C1138   1.478       .  S
O1089      C1097   1.260       .  A
O1090      C1097   1.263       .  A
C1091      O1098   1.261       .  A
C1091      C1117   1.475       .  S
C1093      O1099   1.258       .  A
C1093      C1134   1.466       .  S
C1097      C1114   1.469       .  S
In1100     O1102   2.231       .  S
In1100     O1103   2.240       .  S
In1100     O1111   2.223       .  S
In1100     O1105   2.268       .  S
In1100     O1107   2.257       .  S
In1100     O1108   2.258       .  S
In1100     O1109   2.193       .  S
In1100     O1112   2.222       .  S
C1101      O1107   1.271       .  A
C1101      O1109   1.265       .  A
C1101      C1130   1.475       .  S
O1102      C1110   1.262       .  A
O1103      C1110   1.266       .  A
C1104      O1111   1.259       .  A
C1104      O1105   1.269       .  A
C1104      C1122   1.477       .  S
C1106      O1108   1.267       .  A
C1106      O1112   1.262       .  A
C1106      C1142   1.472       .  S
C1110      C1113   1.469       .  S
C1113      C1114   1.343       .  D
C1113      H1115   1.087       .  S
C1114      H1116   1.086       .  S
C1121      C1122   1.340       .  D
C1121      H1123   1.086       .  S
C1122      H1124   1.087       .  S
C1125      C1126   1.343       .  D
C1125      H1127   1.087       .  S
C1126      H1128   1.087       .  S
C1129      C1130   1.343       .  D
C1129      H1131   1.087       .  S
C1130      H1132   1.086       .  S
C1133      C1134   1.344       .  D
C1134      H1136   1.087       .  S
C1137      C1138   1.345       .  D
C1137      H1139   1.088   1_565  S
C1138      H1140   1.087       .  S
C1141      C1142   1.346       .  D
C1141      H1143   1.087       .  S
C1142      H1144   1.086       .  S
C1145      C1146   1.344       .  D
C1145      H1147   1.087       .  S
C1146      H1148   1.087       .  S
C1149      C1150   1.341       .  D
C1150      H1152   1.087       .  S
C1153      C1154   1.343       .  D
C1153      H1155   1.085       .  S
C1154      H1156   1.087       .  S
C1157      H1159   1.086   1_554  S
C1158      H1160   1.086       .  S
C1161      C1162   1.344       .  D
C1161      H1163   1.086       .  S
C1162      H1164   1.087       .  S
C1165      C1166   1.344       .  D
C1165      H1167   1.086       .  S
C1166      H1168   1.087       .  S
C1169      C1338   1.343       .  D
C1170      C1337   1.341   1_554  D
C1170      H1172   1.086       .  S
C1173      C1174   1.344       .  D
C1173      H1175   1.087       .  S
C1174      H1176   1.087       .  S
In1177     O1179   2.237       .  S
In1177     O1180   2.252       .  S
In1177     O1188   2.241       .  S
In1177     O1186   2.230       .  S
C1178      O1184   1.272       .  A
C1178      C1334   1.477       .  S
O1179      C1187   1.260       .  A
O1180      C1187   1.262       .  A
C1181      O1188   1.256   1_455  A
C1183      O1185   1.271       .  A
C1183      O1189   1.262       .  A
C1183      C1329   1.467       .  S
C1187      C1342   1.468       .  S
In1190     O1192   2.211       .  S
In1190     O1193   2.242       .  S
In1190     O1201   2.234       .  S
In1190     O1195   2.253       .  S
In1190     O1197   2.265       .  S
In1190     O1198   2.245       .  S
In1190     O1199   2.196       .  S
In1190     O1202   2.190       .  S
C1191      O1197   1.275       .  A
C1191      O1199   1.263       .  A
C1191      C1322   1.471       .  S
O1192      C1200   1.264       .  A
O1193      C1200   1.270       .  A
C1194      O1201   1.266       .  A
C1194      O1195   1.272       .  A
C1194      C1326   1.486       .  S
C1196      O1198   1.273       .  A
C1196      O1202   1.265       .  A
C1196      C1318   1.462       .  S
C1200      C1341   1.470       .  S
In1203     O1205   2.208       .  S
In1203     O1206   2.278       .  S
In1203     O1214   2.249       .  S
In1203     O1208   2.262       .  S
In1203     O1210   2.270       .  S
In1203     O1211   2.255       .  S
In1203     O1212   2.224       .  S
In1203     O1215   2.236       .  S
C1204      O1210   1.265       .  A
C1204      O1212   1.259       .  A
C1204      C1309   1.471       .  S
O1205      C1213   1.256       .  A
O1206      C1213   1.265       .  A
C1207      O1214   1.262       .  A
C1207      O1208   1.267       .  A
C1207      C1325   1.485       .  S
C1209      O1211   1.265       .  A
C1209      O1215   1.261       .  A
C1209      C1313   1.473       .  S
C1213      C1305   1.466       .  S
In1216     O1219   2.251       .  S
In1216     O1227   2.226       .  S
In1216     O1221   2.261       .  S
In1216     O1224   2.240       .  S
In1216     O1225   2.197       .  S
In1216     O1228   2.219       .  S
C1217      O1223   1.274       .  A
C1217      C1301   1.473   1_455  S
O1218      C1226   1.264       .  A
C1220      O1227   1.266       .  A
C1220      O1221   1.275       .  A
C1220      C1338   1.485       .  S
C1222      O1224   1.271       .  A
C1222      O1228   1.266       .  A
C1222      C1314   1.474       .  S
C1226      C1297   1.466       .  S
In1229     O1231   2.217       .  S
In1229     O1232   2.264       .  S
In1229     O1240   2.233       .  S
In1229     O1234   2.266       .  S
In1229     O1236   2.273       .  S
In1229     O1237   2.247       .  S
In1229     O1238   2.193       .  S
In1229     O1241   2.231       .  S
C1230      O1236   1.270       .  A
C1230      O1238   1.262       .  A
C1230      C1330   1.479       .  S
O1231      C1239   1.264       .  A
O1232      C1239   1.267       .  A
C1233      O1240   1.260       .  A
C1233      O1234   1.268       .  A
C1233      C1289   1.479       .  S
C1235      O1237   1.265       .  A
C1235      O1241   1.261       .  A
C1235      C1293   1.469       .  S
C1239      C1321   1.480       .  S
In1242     O1245   2.268   1_565  S
In1242     O1253   2.238       .  S
In1242     O1250   2.249       .  S
In1242     O1251   2.200   1_565  S
In1242     O1254   2.217       .  S
C1243      O1249   1.270       .  A
C1243      C1317   1.474       .  S
O1244      C1252   1.261       .  A
C1246      O1253   1.264   1_545  A
C1246      C1286   1.481       .  S
C1248      O1250   1.268       .  A
C1248      O1254   1.262       .  A
C1248      C1294   1.470       .  S
C1252      C1333   1.464       .  S
In1255     O1257   2.228       .  S
In1255     O1258   2.238       .  S
In1255     O1266   2.243       .  S
In1255     O1263   2.262       .  S
In1255     O1264   2.191       .  S
C1256      O1262   1.267       .  A
C1256      C1306   1.479       .  S
O1257      C1265   1.264       .  A
O1258      C1265   1.266       .  A
C1259      O1266   1.265       .  A
C1259      C1285   1.479       .  S
C1261      O1267   1.263       .  A
C1261      C1302   1.478       .  S
C1265      C1282   1.472       .  S
In1268     O1270   2.233       .  S
In1268     O1271   2.243       .  S
In1268     O1279   2.240       .  S
In1268     O1273   2.260       .  S
In1268     O1275   2.249       .  S
In1268     O1276   2.274       .  S
In1268     O1277   2.223       .  S
In1268     O1280   2.225       .  S
C1269      O1275   1.267       .  A
C1269      O1277   1.261       .  A
C1269      C1298   1.470       .  S
O1270      C1278   1.261       .  A
O1271      C1278   1.266       .  A
C1272      O1279   1.260       .  A
C1272      O1273   1.267       .  A
C1272      C1290   1.479       .  S
C1274      O1276   1.265       .  A
C1274      O1280   1.256       .  A
C1274      C1310   1.471       .  S
C1278      C1281   1.469       .  S
C1281      C1282   1.341       .  D
C1281      H1283   1.086       .  S
C1282      H1284   1.086       .  S
C1289      C1290   1.341       .  D
C1289      H1291   1.087       .  S
C1290      H1292   1.086       .  S
C1293      C1294   1.345       .  D
C1293      H1295   1.087       .  S
C1294      H1296   1.086       .  S
C1297      C1298   1.343       .  D
C1297      H1299   1.086       .  S
C1298      H1300   1.087       .  S
C1301      C1302   1.341       .  D
C1302      H1304   1.085       .  S
C1305      C1306   1.344       .  D
C1305      H1307   1.087       .  S
C1306      H1308   1.086       .  S
C1309      C1310   1.345       .  D
C1309      H1311   1.087       .  S
C1310      H1312   1.086       .  S
C1313      C1314   1.345       .  D
C1313      H1315   1.086       .  S
C1314      H1316   1.087       .  S
C1317      C1318   1.342       .  D
C1318      H1320   1.086       .  S
C1321      C1322   1.342       .  D
C1321      H1323   1.085       .  S
C1322      H1324   1.087       .  S
C1325      H1327   1.086       .  S
C1326      H1328   1.085   1_556  S
C1329      C1330   1.344       .  D
C1329      H1331   1.087       .  S
C1330      H1332   1.086       .  S
C1333      C1334   1.343       .  D
C1333      H1335   1.087       .  S
C1334      H1336   1.086       .  S
C1338      H1340   1.086       .  S
C1341      C1342   1.344       .  D
C1341      H1343   1.087       .  S
C1342      H1344   1.087       .  S
