geometry optimzed in LAMMPS
_audit_creation_date              2020-12-01 
_audit_creation_method            'lammps2cif' 
_symmetry_space_group_name_H-M    'P1' 
_symmetry_Int_Tables_number       1 
_symmetry_cell_setting            triclinic 
loop_ 
_symmetry_equiv_pos_as_xyz 
  x,y,z 
_cell_length_a                    68.56351557 
_cell_length_b                    68.85726030375554 
_cell_length_c                    47.71667581704886 
_cell_angle_alpha                 89.96898353401532 
_cell_angle_beta                  89.85091767897138 
_cell_angle_gamma                 89.97242635222457 
loop_ 
_atom_site_label 
_atom_site_type_symbol 
_atom_site_fract_x 
_atom_site_fract_y 
_atom_site_fract_z 
_atom_site_charge 
O1          O  0.39134840  0.73399472  0.36514328    -0.56900
C2          C  0.37799994  0.72021219  0.28752871     0.75700
O3          O  0.38716877  0.78509109  0.31895456    -0.58000
C4          C  0.40174187  0.74538535  0.37958527     0.75700
C5          C  0.43412174  0.75230610  0.29032220     0.78100
Cd6        Cd  0.39696331  0.75017185  0.31959916     1.37500
O7          O  0.38512093  0.71661920  0.31147062    -0.56900
O8          O  0.43122036  0.74066055  0.31041836    -0.55700
C9          C  0.36899103  0.78184161  0.31998882     0.78100
O10         O  0.41995586  0.76325290  0.28404705    -0.58100
O11         O  0.38030952  0.73732564  0.27856885    -0.56500
O12         O  0.41067449  0.75849336  0.36606793    -0.56500
O13         O  0.36409598  0.76416488  0.32068802    -0.55700
O14         O  0.60822687  0.71761653  0.15591842    -0.56900
C15         C  0.59158866  0.74932733  0.08901608     0.75700
O16         O  0.57112129  0.76770960  0.17670716    -0.58000
C17         C  0.61637439  0.72046198  0.17935380     0.75700
C18         C  0.62423617  0.78314060  0.15552560     0.78100
Cd19       Cd  0.59706556  0.75139444  0.14950853     1.37500
O20         O  0.58176088  0.76063373  0.10439669    -0.56900
O21         O  0.62951759  0.76617311  0.14882046    -0.55700
C22         C  0.56010334  0.75307803  0.17906809     0.78100
O23         O  0.60611454  0.78553662  0.15913728    -0.58100
O24         O  0.60359163  0.73853024  0.10169965    -0.56500
O25         O  0.61500384  0.73747714  0.18919384    -0.56500
O26         O  0.56610400  0.73769216  0.16735125    -0.55700
O27         O  0.79436353  0.12269639  0.31392806    -0.56900
C28         C  0.77244021  0.10283912  0.38522597     0.75700
O29         O  0.73067487  0.12026430  0.30645006    -0.58000
C30         C  0.78802683  0.13715706  0.30025986     0.75700
C31         C  0.76158551  0.07438817  0.29577698     0.78100
Cd32       Cd  0.76187462  0.11012986  0.32751073     1.37500
O33         O  0.77739233  0.11821958  0.37258080    -0.56900
O34         O  0.77523960  0.08664213  0.29384438    -0.55700
C35         C  0.72445866  0.12917471  0.32786957     0.78100
O36         O  0.74806645  0.07859459  0.31281822    -0.58100
O37         O  0.76328319  0.09050438  0.37071967    -0.56500
O38         O  0.76968391  0.13889254  0.29929218    -0.56500
O39         O  0.73537050  0.12879938  0.34917022    -0.55700
O40         O  0.79500291  0.89172363  0.17378475    -0.56900
C41         C  0.77002703  0.91618321  0.10596525     0.75700
O42         O  0.73202462  0.89725301  0.18190357    -0.58000
C43         C  0.78907268  0.88325715  0.19580233     0.75700
C44         C  0.76231236  0.94675528  0.19110380     0.78100
Cd45       Cd  0.76386522  0.90899759  0.16468660     1.37500
O46         O  0.78372260  0.90984410  0.12121030    -0.56900
O47         O  0.77820993  0.93771836  0.18773409    -0.55700
C48         C  0.73004882  0.88451688  0.16296391     0.78100
O49         O  0.74722479  0.93829137  0.18216793    -0.58100
O50         O  0.75413047  0.91989165  0.11832856    -0.56500
O51         O  0.77184529  0.88720164  0.20333496    -0.56500
O52         O  0.74371837  0.88324455  0.14521552    -0.55700
O53         O  0.60148869  0.27844383  0.36801079    -0.56900
C54         C  0.61182544  0.29243332  0.28933539     0.75700
O55         O  0.60008485  0.22751834  0.32636231    -0.58000
C56         C  0.58902190  0.26939509  0.38259329     0.75700
C57         C  0.55663430  0.25990249  0.29294008     0.78100
Cd58       Cd  0.59312484  0.26279595  0.32280825     1.37500
O59         O  0.60160854  0.29679237  0.31059867    -0.56900
O60         O  0.56007998  0.27316697  0.31053003    -0.55700
C61         C  0.61834652  0.22930377  0.32335694     0.78100
O62         O  0.57010806  0.24757867  0.28936611    -0.58100
O63         O  0.61326760  0.27451413  0.28401771    -0.56500
O64         O  0.57825816  0.25769773  0.36929753    -0.56500
O65         O  0.62455232  0.24645843  0.32019611    -0.55700
O66         O  0.41906425  0.26546808  0.09741898    -0.56900
C67         C  0.37951465  0.29610378  0.17410115     0.75700
O68         O  0.39130908  0.23101229  0.13886836    -0.58000
C69         C  0.40688670  0.27476777  0.08274227     0.75700
C70         C  0.43471974  0.26266686  0.17436163     0.78100
Cd71       Cd  0.39935802  0.26644254  0.14156142     1.37500
O72         O  0.38760181  0.29996778  0.15088041    -0.56900
O73         O  0.43084488  0.27789094  0.16057158    -0.55700
C74         C  0.37298330  0.23329817  0.13910221     0.78100
O75         O  0.42248128  0.24899468  0.17227387    -0.58100
O76         O  0.38104391  0.27869094  0.18228705    -0.56500
O77         O  0.39167696  0.28030201  0.09544247    -0.56500
O78         O  0.36718949  0.25071269  0.13999801    -0.55700
O79         O  0.19843381  0.89601370  0.31937144    -0.56900
C80         C  0.22557458  0.92072977  0.38359546     0.75700
O81         O  0.26369613  0.90007486  0.31205265    -0.58000
C82         C  0.20132659  0.88985034  0.29475132     0.75700
C83         C  0.23235823  0.94981161  0.29607485     0.78100
Cd84       Cd  0.23055419  0.91219124  0.32452504     1.37500
O85         O  0.21151085  0.91611823  0.36788813    -0.56900
O86         O  0.24716485  0.93893607  0.29833790    -0.55700
C87         C  0.26227594  0.88409805  0.32511370     0.78100
O88         O  0.21697072  0.94343033  0.30740563    -0.58100
O89         O  0.24206699  0.92193885  0.37173317    -0.56500
O90         O  0.21753402  0.89437075  0.28380493    -0.56500
O91         O  0.24628651  0.88125404  0.33773198    -0.55700
O92         O  0.19918846  0.11636143  0.17036675    -0.56900
C93         C  0.22194678  0.10322581  0.08976087     0.75700
O94         O  0.26564353  0.11796581  0.15961102    -0.58000
C95         C  0.20418515  0.13262474  0.18030530     0.75700
C96         C  0.23461323  0.07292258  0.17920057     0.78100
Cd97       Cd  0.23132388  0.10918428  0.14817378     1.37500
O98         O  0.21210885  0.11464074  0.10506829    -0.56900
O99         O  0.22338343  0.07486285  0.15838573    -0.55700
C100        C  0.26698269  0.13130024  0.14138579     0.78100
O101        O  0.24480192  0.08765364  0.18526013    -0.58100
O102        O  0.23534615  0.09378371  0.10191306    -0.56500
O103        O  0.22143877  0.13789230  0.17503363    -0.56500
O104        O  0.25215238  0.13378659  0.12616194    -0.55700
O105        O  0.39657572  0.73540509  0.60570590    -0.56900
C106        C  0.37044559  0.72448707  0.68032342     0.75700
O107        O  0.41689076  0.76737606  0.68360325    -0.58000
C108        C  0.40125576  0.75009403  0.59118608     0.75700
C109        C  0.36675583  0.78579046  0.64931582     0.78100
Cd110      Cd  0.39325135  0.75328538  0.65057540     1.37500
O111        O  0.37540252  0.72214954  0.65498572    -0.56900
O112        O  0.36251883  0.76929721  0.63945496    -0.55700
C113        C  0.43024156  0.75500566  0.67958005     0.78100
O114        O  0.38346553  0.78734792  0.66033095    -0.58100
O115        O  0.37655068  0.73983278  0.69181469    -0.56500
O116        O  0.40333674  0.76581906  0.60454796    -0.56500
O117        O  0.42653995  0.74189940  0.66180904    -0.55700
O118        O  0.60475319  0.74501140  0.77300668    -0.56900
C119        C  0.58833079  0.75458917  0.87666631     0.75700
O120        O  0.62599926  0.77489191  0.81671865    -0.58000
C121        C  0.61361361  0.73064500  0.78342254     0.75700
C122        C  0.55610289  0.76102218  0.78953951     0.78100
Cd123      Cd  0.59374863  0.75972856  0.81684985     1.37500
O124        O  0.59261034  0.74044662  0.86083384    -0.56900
O125        O  0.55967840  0.74945221  0.80948322    -0.55700
C126        C  0.62036240  0.79237556  0.81619231     0.78100
O127        O  0.56976870  0.77247941  0.78285112    -0.58100
O128        O  0.58567944  0.77071512  0.86452148    -0.56500
O129        O  0.61320101  0.72947209  0.80993593    -0.56500
O130        O  0.60208621  0.79496341  0.81545635    -0.55700
O131        O  0.78941283  0.13694245  0.66001812    -0.56900
C132        C  0.77192215  0.10110155  0.59552892     0.75700
O133        O  0.75392980  0.09046335  0.69455667    -0.58000
C134        C  0.79800001  0.13069140  0.68166339     0.75700
C135        C  0.73365446  0.13552186  0.65734506     0.78100
Cd136      Cd  0.76689090  0.10958297  0.65476034     1.37500
O137        O  0.78600603  0.10702916  0.61033099    -0.56900
O138        O  0.75103629  0.14138119  0.65959211    -0.55700
C139        C  0.76343517  0.07515585  0.68896486     0.78100
O140        O  0.73153476  0.11736019  0.65477016    -0.58100
O141        O  0.75614055  0.09814483  0.60852487    -0.56500
O142        O  0.79302222  0.11397715  0.69002305    -0.56500
O143        O  0.77399664  0.07579801  0.66718069    -0.55700
O144        O  0.77691470  0.90818630  0.88037342    -0.56900
C145        C  0.78832471  0.89411706  0.80308801     0.75700
O146        O  0.72938895  0.90760765  0.81564039    -0.58000
C147        C  0.76833276  0.92087455  0.89506772     0.75700
C148        C  0.76066923  0.95452803  0.80916052     0.78100
Cd149      Cd  0.76132763  0.91685741  0.83564742     1.37500
O150        O  0.79406368  0.90475093  0.82303731    -0.56900
O151        O  0.77655764  0.94609534  0.81498064    -0.55700
C152        C  0.72634682  0.89365452  0.83234632     0.78100
O153        O  0.74529481  0.94582195  0.81669300    -0.58100
O154        O  0.77022869  0.89442081  0.79817458    -0.56500
O155        O  0.75682087  0.93205061  0.88206347    -0.56500
O156        O  0.73920336  0.89102679  0.85094358    -0.55700
O157        O  0.61928320  0.28394072  0.69064960    -0.56900
C158        C  0.59181553  0.26978730  0.59348156     0.75700
O159        O  0.61263082  0.23693334  0.66607805    -0.58000
C160        C  0.61978525  0.30099105  0.68085733     0.75700
C161        C  0.56367348  0.26567319  0.68147366     0.78100
Cd162      Cd  0.60040168  0.26919725  0.65250290     1.37500
O163        O  0.59811601  0.28465912  0.60615950    -0.56900
O164        O  0.56654472  0.27831592  0.66268722    -0.55700
C165        C  0.62808282  0.23780450  0.65154238     0.78100
O166        O  0.57781098  0.25445583  0.68655282    -0.58100
O167        O  0.58876424  0.25487708  0.60836408    -0.56500
O168        O  0.61129749  0.30342934  0.65762813    -0.56500
O169        O  0.63083995  0.25339174  0.63803559    -0.55700
O170        O  0.38525383  0.30584223  0.80225581    -0.56900
C171        C  0.40672169  0.27931926  0.87239124     0.75700
O172        O  0.38857451  0.24046409  0.79931100    -0.58000
C173        C  0.37758982  0.30059016  0.77934388     0.75700
C174        C  0.43648190  0.27018362  0.78653252     0.78100
Cd175      Cd  0.39924628  0.27351479  0.81341366     1.37500
O176        O  0.39759421  0.29182653  0.85807811    -0.56900
O177        O  0.42939984  0.28663706  0.79257574    -0.55700
C178        C  0.37293501  0.24090785  0.81344624     0.78100
O179        O  0.42655293  0.25558902  0.79382490    -0.58100
O180        O  0.41274461  0.26457212  0.85918995    -0.56500
O181        O  0.38050204  0.28314018  0.77231821    -0.56500
O182        O  0.36970843  0.25637053  0.82698565    -0.55700
O183        O  0.21260171  0.91012967  0.60808703    -0.56900
C184        C  0.20191170  0.89589493  0.68973367     0.75700
O185        O  0.26455943  0.90718192  0.65404725    -0.58000
C186        C  0.22217810  0.92267182  0.59437834     0.75700
C187        C  0.23280366  0.95220338  0.68155689     0.78100
Cd188      Cd  0.22945791  0.91538447  0.65327407     1.37500
O189        O  0.19714847  0.90130524  0.66529169    -0.56900
O190        O  0.21805451  0.94789671  0.66689073    -0.55700
C191        C  0.26227191  0.88911046  0.65069162     0.78100
O192        O  0.24610871  0.93949673  0.68279362    -0.58100
O193        O  0.21904890  0.90013654  0.69720566    -0.56500
O194        O  0.23467719  0.93216663  0.60814801    -0.56500
O195        O  0.24486411  0.88339602  0.64794041    -0.55700
O196        O  0.20122204  0.13359103  0.81524548    -0.56900
C197        C  0.22722690  0.10945590  0.87877978     0.75700
O198        O  0.24563482  0.09118480  0.78619242    -0.58000
C199        C  0.20227167  0.13692968  0.78922711     0.75700
C200        C  0.26604849  0.14061394  0.81559152     0.78100
Cd201      Cd  0.23209620  0.11559294  0.81876547     1.37500
O202        O  0.21300135  0.11384582  0.86318722    -0.56900
O203        O  0.24898542  0.14726902  0.81897254    -0.55700
C204        C  0.23246410  0.07856139  0.78954123     0.78100
O205        O  0.26743460  0.12233092  0.81390458    -0.58100
O206        O  0.24342916  0.10740758  0.86641267    -0.56500
O207        O  0.21732998  0.13057471  0.77688732    -0.56500
O208        O  0.21935761  0.08279334  0.80718822    -0.55700
O209        O  0.71261519  0.61419696  0.36629209    -0.56900
C210        C  0.69941668  0.62540325  0.28807870     0.75700
O211        O  0.76305634  0.61081367  0.32748469    -0.58000
C212        C  0.72027431  0.60100910  0.38103910     0.75700
C213        C  0.73021818  0.56838169  0.29010610     0.78100
Cd214      Cd  0.72750637  0.60432977  0.32144135     1.37500
O215        O  0.69440196  0.61669047  0.31036466    -0.56900
O216        O  0.71569084  0.57234256  0.30553482    -0.55700
C217        C  0.76133631  0.62902105  0.32470427     0.78100
O218        O  0.74373048  0.58088009  0.28985273    -0.58100
O219        O  0.71715552  0.62369854  0.28110589    -0.56500
O220        O  0.73017633  0.58845469  0.36786789    -0.56500
O221        O  0.74429838  0.63519798  0.32009915    -0.55700
O222        O  0.71031609  0.40119252  0.10035146    -0.56900
C223        C  0.69439042  0.38692163  0.18081512     0.75700
O224        O  0.74258779  0.37837174  0.13607055    -0.58000
C225        C  0.71891628  0.41523008  0.08846780     0.75700
C226        C  0.72592959  0.44479280  0.17556106     0.78100
Cd227      Cd  0.72356287  0.40755745  0.14787379     1.37500
O228        O  0.69018427  0.39448126  0.15741110    -0.56900
O229        O  0.71097568  0.43984452  0.16177117    -0.55700
C230        C  0.75828141  0.38358291  0.14769724     0.78100
O231        O  0.73962506  0.43249505  0.17642076    -0.58100
O232        O  0.71180908  0.38914669  0.18871427    -0.56500
O233        O  0.72929952  0.42576041  0.10416869    -0.56500
O234        O  0.75798199  0.40006822  0.15935467    -0.55700
O235        O  0.87844625  0.79295039  0.33111415    -0.56900
C236        C  0.90537283  0.76618967  0.39651599     0.75700
O237        O  0.88331180  0.72900564  0.32512567    -0.58000
C238        C  0.87345397  0.78990900  0.30597978     0.75700
C239        C  0.93236489  0.75912404  0.30856208     0.78100
Cd240      Cd  0.89551711  0.76155973  0.33787992     1.37500
O241        O  0.89997137  0.78033417  0.38147197    -0.56900
O242        O  0.92656671  0.77465741  0.32000631    -0.55700
C243        C  0.86728737  0.73051451  0.33822375     0.78100
O244        O  0.92146571  0.74446931  0.31173056    -0.58100
O245        O  0.90653743  0.74992442  0.38429028    -0.56500
O246        O  0.87893812  0.77389168  0.29567903    -0.56500
O247        O  0.86471191  0.74620219  0.35149678    -0.55700
O248        O  0.10419155  0.80135293  0.16959371    -0.56900
C249        C  0.08647461  0.77887928  0.10206276     0.75700
O250        O  0.11881285  0.74716185  0.17421681    -0.58000
C251        C  0.11292672  0.79663858  0.19197144     0.75700
C252        C  0.05505568  0.76360951  0.19077486     0.78100
Cd253      Cd  0.09137377  0.76810273  0.16024971     1.37500
O254        O  0.10162240  0.78328566  0.11574685    -0.56900
O255        O  0.06054643  0.77976017  0.18094683    -0.55700
C256        C  0.11615668  0.73389585  0.15635126     0.78100
O257        O  0.06620513  0.74937111  0.18592637    -0.58100
O258        O  0.07338671  0.76991720  0.11562862    -0.56500
O259        O  0.11109159  0.77914885  0.19955659    -0.56500
O260        O  0.10151887  0.73610390  0.14059819    -0.55700
O261        O  0.11712854  0.22476011  0.31565501    -0.56900
C262        C  0.09281657  0.25076449  0.38099842     0.75700
O263        O  0.11081952  0.29087876  0.32109210    -0.58000
C264        C  0.11927779  0.22604918  0.28934294     0.75700
C265        C  0.06310257  0.26097008  0.29304574     0.78100
Cd266      Cd  0.10002314  0.25631252  0.32156566     1.37500
O267        O  0.09731572  0.23680497  0.36498461    -0.56900
O268        O  0.06549824  0.24861884  0.31236813    -0.55700
C269        C  0.12884077  0.28696930  0.32248271     0.78100
O270        O  0.07774331  0.27139026  0.28716020    -0.58100
O271        O  0.09091291  0.26711935  0.36919303    -0.56500
O272        O  0.11204779  0.24103240  0.27809936    -0.56500
O273        O  0.13309772  0.26914536  0.32353158    -0.55700
O274        O  0.88172070  0.22610445  0.16963358    -0.56900
C275        C  0.90200759  0.25594101  0.10203391     0.75700
O276        O  0.88658822  0.29192256  0.16681032    -0.58000
C277        C  0.87824838  0.22851905  0.19549713     0.75700
C278        C  0.93639089  0.26252723  0.18612740     0.78100
Cd279      Cd  0.89784218  0.25796508  0.16232590     1.37500
O280        O  0.90162144  0.24059913  0.11673336    -0.56900
O281        O  0.93225815  0.24899370  0.16926119    -0.55700
C282        C  0.86865833  0.28781567  0.16431505     0.78100
O283        O  0.92265053  0.27419386  0.19171125    -0.58100
O284        O  0.90125556  0.27175749  0.11538085    -0.56500
O285        O  0.88474916  0.24403300  0.20616823    -0.56500
O286        O  0.86447192  0.27005365  0.16142075    -0.55700
O287        O  0.25642662  0.42967906  0.35821113    -0.56900
C288        C  0.29622704  0.39031884  0.28502628     0.75700
O289        O  0.25108769  0.38603113  0.33334105    -0.58000
C290        C  0.27058011  0.42477089  0.37362710     0.75700
C291        C  0.26702284  0.45060047  0.28480599     0.78100
Cd292      Cd  0.26846875  0.41436437  0.31518668     1.37500
O293        O  0.30098652  0.39895400  0.30742303    -0.56900
O294        O  0.28198417  0.44570367  0.29860132    -0.55700
C295        C  0.23583884  0.38802874  0.31877803     0.78100
O296        O  0.25284812  0.43887496  0.28558093    -0.58100
O297        O  0.27900291  0.39326197  0.27666616    -0.56500
O298        O  0.28439662  0.41579699  0.36159428    -0.56500
O299        O  0.23558939  0.40250869  0.30237583    -0.55700
O300        O  0.27394025  0.62101705  0.09921108    -0.56900
C301        C  0.28763433  0.63312310  0.17929387     0.75700
O302        O  0.22416947  0.61755903  0.15060244    -0.58000
C303        C  0.26552882  0.60755479  0.08588015     0.75700
C304        C  0.26152517  0.57536172  0.17345448     0.78100
Cd305      Cd  0.25992830  0.61242986  0.14523244     1.37500
O306        O  0.29267436  0.62489597  0.15667807    -0.56900
O307        O  0.27478698  0.58085140  0.15677458    -0.55700
C308        C  0.22456119  0.63529499  0.14355701     0.78100
O309        O  0.24723058  0.58686043  0.17633384    -0.58100
O310        O  0.26978103  0.63186583  0.18566906    -0.56500
O311        O  0.25519816  0.59605984  0.10033518    -0.56500
O312        O  0.24119385  0.64207774  0.13754854    -0.55700
O313        O  0.71066681  0.64539398  0.65336246    -0.56900
C314        C  0.72662939  0.60813961  0.59156179     0.75700
O315        O  0.76464057  0.62857823  0.63934074    -0.58000
C316        C  0.70002388  0.63926522  0.67322729     0.75700
C317        C  0.73634107  0.57962718  0.67953059     0.78100
Cd318      Cd  0.73172575  0.61625691  0.65069851     1.37500
O319        O  0.71239124  0.61302097  0.60698590    -0.56900
O320        O  0.72394922  0.58186083  0.66022705    -0.55700
C321        C  0.76579876  0.64012642  0.65986976     0.78100
O322        O  0.74654606  0.59434751  0.68523208    -0.58100
O323        O  0.74303169  0.60741344  0.60352100    -0.56500
O324        O  0.70356280  0.62221777  0.68176666    -0.56500
O325        O  0.75121353  0.64056190  0.67611497    -0.55700
O326        O  0.71166436  0.41716254  0.86152948    -0.56900
C327        C  0.70518212  0.39517371  0.78532905     0.75700
O328        O  0.72336267  0.45190498  0.80718969    -0.58000
C329        C  0.72423846  0.42481352  0.87746396     0.75700
C330        C  0.76505962  0.39283843  0.82556025     0.78100
Cd331      Cd  0.73194828  0.41792602  0.81874142     1.37500
O332        O  0.69915614  0.40661702  0.80421033    -0.56900
O333        O  0.74864818  0.38914417  0.83647243    -0.55700
C334        C  0.73610551  0.45398608  0.78820323     0.78100
O335        O  0.76634687  0.40851495  0.81177346    -0.58100
O336        O  0.72342917  0.39451552  0.78201259    -0.56500
O337        O  0.73994269  0.43020703  0.86577556    -0.56500
O338        O  0.74714639  0.43959549  0.78400446    -0.55700
O339        O  0.89610340  0.78830506  0.61870514    -0.56900
C340        C  0.87501195  0.80232381  0.69521859     0.75700
O341        O  0.86767526  0.75700986  0.65341859    -0.58000
C342        C  0.90736604  0.77627234  0.60681187     0.75700
C343        C  0.93345583  0.77247807  0.69781186     0.78100
Cd344      Cd  0.89788695  0.77363055  0.66584874     1.37500
O345        O  0.88399503  0.80633274  0.67274985    -0.56900
O346        O  0.92090255  0.75906107  0.69908988    -0.55700
C347        C  0.87164747  0.74110611  0.66539324     0.78100
O348        O  0.92964083  0.78645549  0.68146838    -0.58100
O349        O  0.87710962  0.78519932  0.70424142    -0.56500
O350        O  0.91487350  0.76350450  0.62252465    -0.56500
O351        O  0.88823509  0.74006987  0.67684405    -0.55700
O352        O  0.09235416  0.79327465  0.87596001    -0.56900
C353        C  0.11721037  0.80401984  0.80179589     0.75700
O354        O  0.10587662  0.73937305  0.82634470    -0.58000
C355        C  0.08997396  0.77891495  0.89213248     0.75700
C356        C  0.05873871  0.77043320  0.80786857     0.78100
Cd357      Cd  0.09711580  0.77389774  0.83297912     1.37500
O358        O  0.11776118  0.80341916  0.82828577    -0.56900
O359        O  0.06319320  0.78416139  0.82426359    -0.55700
C360        C  0.12393182  0.74132583  0.83091831     0.78100
O361        O  0.07207103  0.75815256  0.80311679    -0.58100
O362        O  0.10706841  0.79100939  0.79012266    -0.56500
O363        O  0.09062669  0.76235117  0.88074543    -0.56500
O364        O  0.12958058  0.75846415  0.83592058    -0.55700
O365        O  0.28925827  0.39539637  0.64818522    -0.56900
C366        C  0.26104209  0.41821348  0.58351406     0.75700
O367        O  0.22569656  0.39903746  0.66236504    -0.58000
C368        C  0.28591800  0.38783841  0.67186536     0.75700
C369        C  0.25702635  0.44776481  0.67088686     0.78100
Cd370      Cd  0.25693396  0.41066766  0.64267004     1.37500
O371        O  0.27142778  0.40590021  0.59631252    -0.56900
O372        O  0.27243979  0.44070626  0.66039197    -0.55700
C373        C  0.22273593  0.38611364  0.64402611     0.78100
O374        O  0.24164475  0.43791946  0.66741988    -0.58100
O375        O  0.24915121  0.42784075  0.59838324    -0.56500
O376        O  0.26916024  0.39098913  0.68199712    -0.56500
O377        O  0.23553020  0.38480582  0.62502963    -0.55700
O378        O  0.27491164  0.60614220  0.86121397    -0.56900
C379        C  0.28368234  0.63075878  0.78550754     0.75700
O380        O  0.27081282  0.57692063  0.79927368    -0.58000
C381        C  0.26133836  0.59846012  0.87547899     0.75700
C382        C  0.22435918  0.63392301  0.82300324     0.78100
Cd383      Cd  0.25654097  0.60721400  0.81710816     1.37500
O384        O  0.28843429  0.62308631  0.80861321    -0.56900
O385        O  0.23895589  0.63416245  0.83910975    -0.55700
C386        C  0.25553946  0.57042363  0.78787066     0.78100
O387        O  0.22450828  0.62114995  0.80387527    -0.58100
O388        O  0.26647646  0.62746695  0.77733852    -0.56500
O389        O  0.24629041  0.59335167  0.86205543    -0.56500
O390        O  0.24038462  0.58078078  0.79061412    -0.55700
O391        O  0.10043490  0.24077808  0.60692068    -0.56900
C392        C  0.10916017  0.22291508  0.68313461     0.75700
O393        O  0.09785492  0.28830592  0.64513275    -0.58000
C394        C  0.08629280  0.24747937  0.59293973     0.75700
C395        C  0.05387042  0.25520329  0.68398231     0.78100
Cd396      Cd  0.08995546  0.25352216  0.65280834     1.37500
O397        O  0.10341365  0.22037568  0.65819439    -0.56900
O398        O  0.05820322  0.24098415  0.66840519    -0.55700
C399        C  0.11505545  0.28720904  0.65452919     0.78100
O400        O  0.06591301  0.26912150  0.68404326    -0.58100
O401        O  0.10555189  0.23937073  0.69371889    -0.56500
O402        O  0.07338548  0.25640801  0.60690268    -0.56500
O403        O  0.12027211  0.27073855  0.66346711    -0.55700
O404        O  0.88881030  0.24102034  0.87673316    -0.56900
C405        C  0.87685380  0.22429809  0.79742572     0.75700
O406        O  0.88583823  0.29017846  0.82387624    -0.58000
C407        C  0.90060882  0.25172658  0.88992491     0.75700
C408        C  0.93097917  0.25797430  0.80111021     0.78100
Cd409      Cd  0.89424402  0.25543761  0.82990691     1.37500
O410        O  0.88424157  0.23915081  0.78600325    -0.56900
O411        O  0.91765961  0.27051639  0.79813776    -0.55700
C412        C  0.86773930  0.28806247  0.82782546     0.78100
O413        O  0.92762178  0.24452496  0.81864599    -0.58100
O414        O  0.87778274  0.22373209  0.82388867    -0.56500
O415        O  0.91023771  0.26357424  0.87506304    -0.56500
O416        O  0.86206017  0.27087677  0.83223593    -0.55700
C417        C  0.01444374  0.27398167  0.73279033    -0.01100
C418        C  0.00238126  0.25759920  0.73607277     0.07500
C419        C  0.00714597  0.24032981  0.72216125    -0.07100
C420        C  0.02369988  0.23914289  0.70501543     0.04900
C421        C  0.03589023  0.25560453  0.70149843    -0.14300
C422        C  0.03104525  0.27286652  0.71572101    -0.07600
C423        C  0.98449676  0.25822338  0.75353712     0.05900
C424        C  0.96860302  0.26927616  0.74435283    -0.08700
C425        C  0.95114193  0.26967523  0.75959675     0.00900
C426        C  0.94939217  0.25876344  0.78469552     0.00700
C427        C  0.96547678  0.24782204  0.79388852    -0.12300
C428        C  0.98293379  0.24753381  0.77861138     0.01200
C429        C  0.93517602  0.28087524  0.74827554     0.40500
C430        C  0.99918477  0.23644783  0.78926395     0.37100
C431        C  0.01020276  0.29197502  0.74710064     0.36900
C432        C  0.02779964  0.22072588  0.69178674     0.37600
N433        N  0.92242647  0.28986007  0.73910073    -0.43200
N434        N  0.01225917  0.22762742  0.79778936    -0.43600
N435        N  0.03102985  0.20592785  0.68125525    -0.41000
N436        N  0.00674199  0.30637252  0.75858719    -0.42400
H437        H  0.04021747  0.28560163  0.71351090     0.13800
H438        H  0.99781793  0.22772186  0.72469035     0.10200
H439        H  0.96977786  0.27739210  0.72492734     0.11300
H440        H  0.96446192  0.23948229  0.81311960     0.17100
C441        C  0.15944996  0.31735491  0.67186211    -0.01100
C442        C  0.15732127  0.33342839  0.65390013     0.07500
C443        C  0.14068631  0.33493404  0.63705238    -0.07100
C444        C  0.12633564  0.32043912  0.63745558     0.04900
C445        C  0.12867315  0.30396809  0.65492960    -0.14300
C446        C  0.14519236  0.30285238  0.67228666    -0.07600
C447        C  0.17310960  0.34790951  0.65075211     0.05900
C448        C  0.18544702  0.34655386  0.62742577    -0.08700
C449        C  0.20148935  0.35894731  0.62440878     0.00900
C450        C  0.20540472  0.37313658  0.64519432     0.00700
C451        C  0.19258722  0.37471960  0.66819629    -0.12300
C452        C  0.17655961  0.36228115  0.67107944     0.01200
C453        C  0.21359348  0.35649755  0.59984447     0.40500
C454        C  0.16382410  0.36453040  0.69499774     0.37100
C455        C  0.17657664  0.31501188  0.68909961     0.36900
C456        C  0.10997937  0.32249200  0.61869245     0.37600
N457        N  0.22320151  0.35442812  0.58008825    -0.43200
N458        N  0.15359719  0.36639945  0.71413829    -0.43600
N459        N  0.09692203  0.32420881  0.60356730    -0.41000
N460        N  0.19032435  0.31310868  0.70285033    -0.42400
H461        H  0.14722084  0.29039295  0.68587885     0.13800
H462        H  0.13916386  0.34725675  0.62306213     0.10200
H463        H  0.18270879  0.33548339  0.61174987     0.11300
H464        H  0.19517042  0.38556412  0.68422545     0.17100
C465        C  0.23987992  0.48649031  0.72147212    -0.01100
C466        C  0.25512198  0.50022796  0.72038993     0.07500
C467        C  0.27120543  0.49666707  0.70285145    -0.07100
C468        C  0.27220177  0.47986537  0.68629925     0.04900
C469        C  0.25680339  0.46617540  0.68714841    -0.14300
C470        C  0.24076188  0.46981438  0.70480074    -0.07600
C471        C  0.25485635  0.51816619  0.73779589     0.05900
C472        C  0.27000314  0.52127110  0.75697628    -0.08700
C473        C  0.27054704  0.53803066  0.77360043     0.00900
C474        C  0.25546048  0.55203071  0.77152238     0.00700
C475        C  0.24028746  0.54882808  0.75229977    -0.12300
C476        C  0.24007018  0.53231345  0.73517367     0.01200
C477        C  0.28677369  0.54032594  0.79254949     0.40500
C478        C  0.22505087  0.53068379  0.71414327     0.37100
C479        C  0.22340583  0.48883838  0.74008270     0.36900
C480        C  0.28900937  0.47737837  0.66835387     0.37600
N481        N  0.29985268  0.54218976  0.80759615    -0.43200
N482        N  0.21304453  0.52934903  0.69725349    -0.43600
N483        N  0.30250974  0.47549345  0.65399532    -0.41000
N484        N  0.21010488  0.49072323  0.75481169    -0.42400
H485        H  0.22895179  0.45937705  0.70607692     0.13800
H486        H  0.28298780  0.50715963  0.70196463     0.10200
H487        H  0.28149937  0.51052623  0.75892093     0.11300
H488        H  0.22885027  0.55958363  0.74992604     0.17100
C489        C  0.17147989  0.71327331  0.83553344    -0.01100
C490        C  0.16550734  0.69406172  0.83014382     0.07500
C491        C  0.14571392  0.69024075  0.82543022    -0.07100
C492        C  0.13188313  0.70523803  0.82559093     0.04900
C493        C  0.13782348  0.72465036  0.83064831    -0.14300
C494        C  0.15770895  0.72830632  0.83575193    -0.07600
C495        C  0.17978204  0.67785618  0.82849734     0.05900
C496        C  0.18973379  0.67206553  0.85274783    -0.08700
C497        C  0.20380654  0.65730621  0.85171163     0.00900
C498        C  0.20832335  0.64825583  0.82585334     0.00700
C499        C  0.19783627  0.65364451  0.80183083    -0.12300
C500        C  0.18365783  0.66826737  0.80297527     0.01200
C501        C  0.21282788  0.65130080  0.87764341     0.40500
C502        C  0.17365032  0.67358455  0.77751786     0.37100
C503        C  0.19175049  0.71800093  0.84006052     0.36900
C504        C  0.11181410  0.70010012  0.82032496     0.37600
N505        N  0.21992359  0.64638921  0.89846199    -0.43200
N506        N  0.16554117  0.67782532  0.75717526    -0.43600
N507        N  0.09575376  0.69588692  0.81606679    -0.41000
N508        N  0.20799235  0.72179472  0.84367195    -0.42400
H509        H  0.16262737  0.74300957  0.83971828     0.13800
H510        H  0.14108688  0.67544382  0.82139187     0.10200
H511        H  0.18644877  0.67909678  0.87254289     0.11300
H512        H  0.20106926  0.64677748  0.78190195     0.17100
C513        C  0.96742442  0.76122076  0.75804580    -0.01100
C514        C  0.98484795  0.77024980  0.74936863     0.07500
C515        C  0.98542644  0.78000497  0.72358610    -0.07100
C516        C  0.96893750  0.78091292  0.70639379     0.04900
C517        C  0.95141851  0.77184595  0.71497917    -0.14300
C518        C  0.95094629  0.76196034  0.74077932    -0.07600
C519        C  0.00277137  0.76976165  0.76665485     0.05900
C520        C  0.01396371  0.75274051  0.76750559    -0.08700
C521        C  0.03203126  0.75235384  0.78123981     0.00900
C522        C  0.03915158  0.76933798  0.79453634     0.00700
C523        C  0.02741272  0.78611265  0.79449997    -0.12300
C524        C  0.00944656  0.78645264  0.78065576     0.01200
C525        C  0.04275357  0.73430175  0.78132956     0.40500
C526        C  0.99811438  0.80413241  0.78089474     0.37100
C527        C  0.96594792  0.75165815  0.78489543     0.36900
C528        C  0.97068077  0.79062220  0.67967762     0.37600
N529        N  0.05121040  0.71974955  0.78130446    -0.43200
N530        N  0.98898559  0.81827132  0.78107799    -0.43600
N531        N  0.97213446  0.79836456  0.65824081    -0.41000
N532        N  0.96464501  0.74408091  0.80647265    -0.42400
H533        H  0.93755355  0.75508379  0.74774344     0.13800
H534        H  0.99889010  0.78685379  0.71683135     0.10200
H535        H  0.00875364  0.73984718  0.75683204     0.11300
H536        H  0.03246875  0.79922482  0.80474182     0.17100
C537        C  0.80940488  0.36362054  0.80493693    -0.01100
C538        C  0.81114513  0.35057758  0.82756852     0.07500
C539        C  0.79842398  0.35227221  0.85049432    -0.07100
C540        C  0.78360643  0.36624818  0.85069951     0.04900
C541        C  0.78159537  0.37912244  0.82778303    -0.14300
C542        C  0.79488905  0.37792014  0.80539534    -0.07600
C543        C  0.82563910  0.33459044  0.82729673     0.05900
C544        C  0.84559148  0.33902367  0.82787404    -0.08700
C545        C  0.85966512  0.32424835  0.82800807     0.00900
C546        C  0.85374771  0.30453353  0.82736709     0.00700
C547        C  0.83370427  0.30025193  0.82673211    -0.12300
C548        C  0.81972024  0.31500788  0.82673163     0.01200
C549        C  0.87991965  0.32985969  0.82966791     0.40500
C550        C  0.79936748  0.30966725  0.82567226     0.37100
C551        C  0.82147865  0.36177215  0.78024431     0.36900
C552        C  0.77076297  0.36703780  0.87471793     0.37600
N553        N  0.89612843  0.33443275  0.83111322    -0.43200
N554        N  0.78307072  0.30534382  0.82488669    -0.43600
N555        N  0.76045459  0.36761337  0.89394691    -0.41000
N556        N  0.83104127  0.36016198  0.76036085    -0.42400
H557        H  0.79334610  0.38755038  0.78754124     0.13800
H558        H  0.79986311  0.34235838  0.86804693     0.10200
H559        H  0.85015263  0.35409821  0.82857164     0.11300
H560        H  0.82884925  0.28527115  0.82614819     0.17100
C561        C  0.79534002  0.68360295  0.68274743    -0.01100
C562        C  0.81319951  0.68050109  0.66880138     0.07500
C563        C  0.81622747  0.66313257  0.65416069    -0.07100
C564        C  0.80129074  0.64935634  0.65182978     0.04900
C565        C  0.78286724  0.65300694  0.66423377    -0.14300
C566        C  0.78037242  0.66991381  0.68037786    -0.07600
C567        C  0.82834236  0.69579219  0.66760537     0.05900
C568        C  0.84582879  0.69328141  0.68227750    -0.08700
C569        C  0.86028810  0.70767309  0.68181931     0.00900
C570        C  0.85734698  0.72490995  0.66609847     0.00700
C571        C  0.83984944  0.72711329  0.65110283    -0.12300
C572        C  0.82544984  0.71278950  0.65173295     0.01200
C573        C  0.87769848  0.70440667  0.69812268     0.40500
C574        C  0.80785877  0.71575711  0.63568789     0.37100
C575        C  0.79198925  0.70089525  0.69919885     0.36900
C576        C  0.80540376  0.63159805  0.63686291     0.37600
N577        N  0.89162927  0.70179420  0.71124799    -0.43200
N578        N  0.79373802  0.71812024  0.62289786    -0.43600
N579        N  0.80877611  0.61733352  0.62497954    -0.41000
N580        N  0.78936086  0.71476632  0.71236417    -0.42400
H581        H  0.76647559  0.67279853  0.69045714     0.13800
H582        H  0.83012261  0.66059751  0.64386450     0.10200
H583        H  0.84804748  0.68014679  0.69442290     0.11300
H584        H  0.83729537  0.74012658  0.63883662     0.17100
C585        C  0.72747126  0.52738442  0.70072317    -0.01100
C586        C  0.73942056  0.52543055  0.72450521     0.07500
C587        C  0.75115525  0.54100257  0.73286199    -0.07100
C588        C  0.75078352  0.55865534  0.71831690     0.04900
C589        C  0.73841975  0.56089906  0.69474441    -0.14300
C590        C  0.72710958  0.54496413  0.68602865    -0.07600
C591        C  0.73931983  0.50743513  0.74147898     0.05900
C592        C  0.74755960  0.49051593  0.73030109    -0.08700
C593        C  0.74708246  0.47303047  0.74526439     0.00900
C594        C  0.73785761  0.47225622  0.77186876     0.00700
C595        C  0.72977812  0.48936343  0.78304213    -0.12300
C596        C  0.73066752  0.50690090  0.76826857     0.01200
C597        C  0.75579861  0.45615639  0.73234998     0.40500
C598        C  0.72245896  0.52414646  0.78085252     0.37100
C599        C  0.71480474  0.51182021  0.69182471     0.36900
C600        C  0.76290198  0.57420887  0.72867301     0.37600
N601        N  0.76289845  0.44273264  0.72188379    -0.43200
N602        N  0.71604728  0.53803894  0.79094468    -0.43600
N603        N  0.77260294  0.58665644  0.73706254    -0.41000
N604        N  0.70461880  0.49933314  0.68487013    -0.42400
H605        H  0.71758373  0.54632146  0.66802913     0.13800
H606        H  0.76040512  0.53942475  0.75113729     0.10200
H607        H  0.75431285  0.49099091  0.70972323     0.11300
H608        H  0.72284884  0.48909791  0.80349580     0.17100
C609        C  0.26094930  0.58507414  0.01402098    -0.01100
C610        C  0.26738543  0.60011408  0.99627644     0.07500
C611        C  0.27401756  0.61755518  0.00806481    -0.07100
C612        C  0.27402314  0.62029347  0.03716829     0.04900
C613        C  0.26724231  0.60528108  0.05504074    -0.14300
C614        C  0.26095617  0.58773048  0.04303927    -0.07600
C615        C  0.26627434  0.59828729  0.96535338     0.05900
C616        C  0.24791027  0.59628146  0.95286837    -0.08700
C617        C  0.24596061  0.59539569  0.92373198     0.00900
C618        C  0.26273145  0.59661495  0.90640002     0.00700
C619        C  0.28117148  0.59811917  0.91908218    -0.12300
C620        C  0.28304275  0.59899394  0.94827293     0.01200
C621        C  0.22645536  0.59433265  0.91246716     0.40500
C622        C  0.30227731  0.60071537  0.96025914     0.37100
C623        C  0.25426686  0.56676070  0.00289826     0.36900
C624        C  0.28032496  0.63890511  0.04776248     0.37600
N625        N  0.21077802  0.59353639  0.90360522    -0.43200
N626        N  0.31766122  0.60216062  0.96995401    -0.43600
N627        N  0.28536756  0.65386516  0.05608849    -0.41000
N628        N  0.24885796  0.55212113  0.99392153    -0.42400
H629        H  0.25582446  0.57601667  0.05635172     0.13800
H630        H  0.27876782  0.62924180  0.99440157     0.10200
H631        H  0.23497422  0.59587736  0.96599812     0.11300
H632        H  0.29416883  0.59903326  0.90615422     0.17100
C633        C  0.25019042  0.43206916  0.44649730    -0.01100
C634        C  0.26683291  0.42959372  0.46341447     0.07500
C635        C  0.28514484  0.42741825  0.45059249    -0.07100
C636        C  0.28698954  0.42686762  0.42134603     0.04900
C637        C  0.27018177  0.42831279  0.40433852    -0.14300
C638        C  0.25200769  0.43156438  0.41728578    -0.07600
C639        C  0.26531722  0.42725656  0.49428977     0.05900
C640        C  0.26999619  0.40913782  0.50585689    -0.08700
C641        C  0.26863501  0.40587092  0.53472172     0.00900
C642        C  0.26260660  0.42104533  0.55276666     0.00700
C643        C  0.25777505  0.43917913  0.54110790    -0.12300
C644        C  0.25919980  0.44241546  0.51214040     0.01200
C645        C  0.27269524  0.38654275  0.54496148     0.40500
C646        C  0.25470546  0.46146326  0.50127193     0.37100
C647        C  0.23093808  0.43394656  0.45854435     0.36900
C648        C  0.30628631  0.42481922  0.40953028     0.37600
N649        N  0.27587244  0.37103461  0.55313303    -0.43200
N650        N  0.25105014  0.47670359  0.49249638    -0.43600
N651        N  0.32179651  0.42326811  0.40016435    -0.41000
N652        N  0.21549696  0.43551168  0.46813406    -0.42400
H653        H  0.23894869  0.43274070  0.40461988     0.13800
H654        H  0.29800366  0.42569593  0.46356032     0.10200
H655        H  0.27447090  0.39737749  0.49214024     0.11300
H656        H  0.25314311  0.45094410  0.55468505     0.17100
C657        C  0.24859952  0.53582176  0.22548986    -0.01100
C658        C  0.26434476  0.52283576  0.22269143     0.07500
C659        C  0.27895019  0.52667092  0.20289012    -0.07100
C660        C  0.27816178  0.54330010  0.18599176     0.04900
C661        C  0.26269344  0.55680303  0.18939172    -0.14300
C662        C  0.24801117  0.55270679  0.20920007    -0.07600
C663        C  0.26522132  0.50456706  0.23903678     0.05900
C664        C  0.25215388  0.48966980  0.23241625    -0.08700
C665        C  0.25260930  0.47196085  0.24674361     0.00900
C666        C  0.26617201  0.46904214  0.26869122     0.00700
C667        C  0.27937133  0.48403094  0.27513999    -0.12300
C668        C  0.27907246  0.50164567  0.26039320     0.01200
C669        C  0.23963471  0.45680822  0.23735314     0.40500
C670        C  0.29303084  0.51653464  0.26752673     0.37100
C671        C  0.23282487  0.53205928  0.24485040     0.36900
C672        C  0.29312106  0.54560156  0.16489898     0.37600
N673        N  0.22933558  0.44465349  0.22957249    -0.43200
N674        N  0.30426785  0.52844956  0.27310741    -0.43600
N675        N  0.30508393  0.54716615  0.14788934    -0.41000
N676        N  0.22009332  0.52896209  0.26017845    -0.42400
H677        H  0.23593405  0.56269398  0.21201155     0.13800
H678        H  0.29079756  0.51637965  0.20023480     0.10200
H679        H  0.24177321  0.49179522  0.21556177     0.11300
H680        H  0.28994539  0.48202036  0.29175285     0.17100
C681        C  0.91505948  0.26636725  0.96376257    -0.01100
C682        C  0.90500386  0.25269992  0.98042055     0.07500
C683        C  0.89406278  0.23816447  0.96720325    -0.07100
C684        C  0.89285228  0.23712437  0.93792511     0.04900
C685        C  0.90259961  0.25105821  0.92106402    -0.14300
C686        C  0.91381658  0.26543602  0.93445669    -0.07600
C687        C  0.90511899  0.25362152  0.01162770     0.05900
C688        C  0.89710271  0.26993095  0.02497282    -0.08700
C689        C  0.89591946  0.27097763  0.05425430     0.00900
C690        C  0.90308453  0.25550695  0.07091173     0.00700
C691        C  0.91107516  0.23916699  0.05748533    -0.12300
C692        C  0.91209994  0.23810518  0.02815707     0.01200
C693        C  0.88623008  0.28760476  0.06645024     0.40500
C694        C  0.92047068  0.22098804  0.01546196     0.37100
C695        C  0.92689669  0.28137781  0.97624192     0.36900
C696        C  0.88150550  0.22151494  0.92606933     0.37600
N697        N  0.87833936  0.30082912  0.07626732    -0.43200
N698        N  0.92707109  0.20724946  0.00518639    -0.43600
N699        N  0.87242663  0.20891939  0.91675697    -0.41000
N700        N  0.93638225  0.29342115  0.98620820    -0.42400
H701        H  0.92145465  0.27622843  0.92204431     0.13800
H702        H  0.88622678  0.22766260  0.97990188     0.10200
H703        H  0.89126488  0.28168877  0.01239020     0.11300
H704        H  0.91657834  0.22718190  0.06991977     0.17100
C705        C  0.08367987  0.26389078  0.45717665    -0.01100
C706        C  0.08737138  0.24624790  0.47122954     0.07500
C707        C  0.09230347  0.22977335  0.45542525    -0.07100
C708        C  0.09398704  0.23072039  0.42613361     0.04900
C709        C  0.09032269  0.24844461  0.41192357    -0.14300
C710        C  0.08501129  0.26480918  0.42789986    -0.07600
C711        C  0.08676850  0.24496121  0.50242102     0.05900
C712        C  0.06934101  0.24925744  0.51664020    -0.08700
C713        C  0.06858134  0.24971309  0.54602181     0.00900
C714        C  0.08553606  0.24558485  0.56185403     0.00700
C715        C  0.10274359  0.24050546  0.54748326    -0.12300
C716        C  0.10352436  0.24029591  0.51814993     0.01200
C717        C  0.05020623  0.25450768  0.55915234     0.40500
C718        C  0.12198322  0.23624112  0.50472960     0.37100
C719        C  0.07943834  0.28150478  0.47245481     0.36900
C720        C  0.10009860  0.21338345  0.41153985     0.37600
N721        N  0.03545562  0.25837918  0.56959803    -0.43200
N722        N  0.13679538  0.23301756  0.49401604    -0.43600
N723        N  0.10511723  0.19951121  0.39987982    -0.41000
N724        N  0.07611914  0.29559581  0.48478855    -0.42400
H725        H  0.08231499  0.27858108  0.41758916     0.13800
H726        H  0.09516666  0.21616568  0.46611009     0.10200
H727        H  0.05633775  0.25260659  0.50466620     0.11300
H728        H  0.11592014  0.23735221  0.55916164     0.17100
C729        C  0.15233689  0.33690990  0.32497280    -0.01100
C730        C  0.17227941  0.33241895  0.32160849     0.07500
C731        C  0.17797220  0.31293591  0.31954742    -0.07100
C732        C  0.16424328  0.29795254  0.32031428     0.04900
C733        C  0.14409654  0.30235327  0.32265885    -0.14300
C734        C  0.13844633  0.32194894  0.32512392    -0.07600
C735        C  0.18774270  0.34753673  0.32132835     0.05900
C736        C  0.20235032  0.34663788  0.34176981    -0.08700
C737        C  0.21811752  0.35951215  0.34141146     0.00900
C738        C  0.21928214  0.37410055  0.32049328     0.00700
C739        C  0.20448311  0.37505500  0.30014070    -0.12300
C740        C  0.18900683  0.36175799  0.30011331     0.01200
C741        C  0.23293219  0.35698544  0.36256316     0.40500
C742        C  0.17526745  0.36231625  0.27723945     0.37100
C743        C  0.14588232  0.35665140  0.32929745     0.36900
C744        C  0.17149215  0.27828394  0.31870882     0.37600
N745        N  0.24482251  0.35474167  0.37943229    -0.43200
N746        N  0.16432594  0.36273403  0.25882134    -0.43600
N747        N  0.17737196  0.26254337  0.31759707    -0.41000
N748        N  0.14076649  0.37248639  0.33280602    -0.42400
H749        H  0.12315324  0.32562493  0.32751344     0.13800
H750        H  0.19333175  0.30941188  0.31737863     0.10200
H751        H  0.20158555  0.33552640  0.35787265     0.11300
H752        H  0.20528100  0.38585199  0.28362558     0.17100
C753        C  0.97605685  0.27937211  0.23574082    -0.01100
C754        C  0.99138273  0.26642856  0.22957149     0.07500
C755        C  0.98916656  0.25303718  0.20774352    -0.07100
C756        C  0.97175891  0.25192547  0.19257248     0.04900
C757        C  0.95593883  0.26433569  0.19943810    -0.14300
C758        C  0.95856997  0.27828209  0.22068410    -0.07600
C759        C  0.00966964  0.26611394  0.24611028     0.05900
C760        C  0.00916038  0.25900044  0.27363096    -0.08700
C761        C  0.02631399  0.25707348  0.28929314     0.00900
C762        C  0.04439591  0.26293564  0.27765386     0.00700
C763        C  0.04474839  0.27038233  0.25018974    -0.12300
C764        C  0.02766236  0.27163441  0.23424888     0.01200
C765        C  0.02485674  0.24890399  0.31709594     0.40500
C766        C  0.02892237  0.27819970  0.20555337     0.37100
C767        C  0.97796255  0.29386297  0.25742486     0.36900
C768        C  0.97074080  0.23780919  0.17026546     0.37600
N769        N  0.02370570  0.24218332  0.33927555    -0.43200
N770        N  0.02979569  0.28321711  0.18243382    -0.43600
N771        N  0.97010562  0.22647076  0.15239580    -0.41000
N772        N  0.97948337  0.30549631  0.27477713    -0.42400
H773        H  0.94678439  0.28810915  0.22607561     0.13800
H774        H  0.00104705  0.24318480  0.20282756     0.10200
H775        H  0.99534848  0.25444301  0.28261325     0.11300
H776        H  0.05850606  0.27466697  0.24078389     0.17100
C777        C  0.08899402  0.76616267  0.96910964    -0.01100
C778        C  0.08332810  0.78380310  0.98166425     0.07500
C779        C  0.07955697  0.80000366  0.96472852    -0.07100
C780        C  0.08130723  0.79879576  0.93546821     0.04900
C781        C  0.08709267  0.78108826  0.92281226    -0.14300
C782        C  0.09072378  0.76491102  0.93999595    -0.07600
C783        C  0.08204095  0.78551173  0.01256242     0.05900
C784        C  0.09705675  0.79498428  0.02692659    -0.08700
C785        C  0.09831809  0.79396779  0.05620178     0.00900
C786        C  0.08437317  0.78308857  0.07159578     0.00700
C787        C  0.06854450  0.77485189  0.05709770    -0.12300
C788        C  0.06727095  0.77603758  0.02787548     0.01200
C789        C  0.11427504  0.80397302  0.06958075     0.40500
C790        C  0.05095462  0.76701992  0.01391414     0.37100
C791        C  0.09368454  0.74929263  0.98580182     0.36900
C792        C  0.07668469  0.81580602  0.91906396     0.37600
N793        N  0.12705698  0.81207720  0.08020418    -0.43200
N794        N  0.03785931  0.75985477  0.00269747    -0.43600
N795        N  0.07294291  0.82940372  0.90585593    -0.41000
N796        N  0.09745094  0.73581718  0.99924490    -0.42400
H797        H  0.09532989  0.75127541  0.93073691     0.13800
H798        H  0.07520746  0.81358094  0.97441074     0.10200
H799        H  0.10827901  0.80252463  0.01512020     0.11300
H800        H  0.05744659  0.76683471  0.06845400     0.17100
C801        C  0.15937938  0.70128648  0.17133434    -0.01100
C802        C  0.15892424  0.68811300  0.14878826     0.07500
C803        C  0.14353297  0.68901428  0.12957450    -0.07100
C804        C  0.12905873  0.70337468  0.13189579     0.04900
C805        C  0.12988534  0.71716736  0.15394938    -0.14300
C806        C  0.14498921  0.71558947  0.17375060    -0.07600
C807        C  0.17507037  0.67407713  0.14436856     0.05900
C808        C  0.17226831  0.65440562  0.15078137    -0.08700
C809        C  0.18792345  0.64124288  0.14992744     0.00900
C810        C  0.20686355  0.64785628  0.14268464     0.00700
C811        C  0.20924523  0.66744653  0.13494814    -0.12300
C812        C  0.19360744  0.68045662  0.13562464     0.01200
C813        C  0.18401295  0.62122435  0.15695493     0.40500
C814        C  0.19696567  0.70039386  0.12751699     0.37100
C815        C  0.17469808  0.70052242  0.19204126     0.36900
C816        C  0.11398820  0.70384395  0.11083764     0.37600
N817        N  0.18075021  0.60518836  0.16252795    -0.43200
N818        N  0.19963369  0.71636153  0.12098362    -0.43600
N819        N  0.10193583  0.70418099  0.09390539    -0.41000
N820        N  0.18703973  0.69984432  0.20851103    -0.42400
H821        H  0.14583949  0.72580321  0.19099361     0.13800
H822        H  0.14314596  0.67881132  0.11227828     0.10200
H823        H  0.15794734  0.64945621  0.15721273     0.11300
H824        H  0.22347341  0.67280770  0.12875094     0.17100
C825        C  0.90935997  0.75339705  0.47350513    -0.01100
C826        C  0.91320157  0.77158947  0.48586209     0.07500
C827        C  0.91590490  0.78784299  0.46855804    -0.07100
C828        C  0.91398926  0.78639705  0.43939141     0.04900
C829        C  0.90942438  0.76829807  0.42697284    -0.14300
C830        C  0.90767307  0.75186372  0.44432466    -0.07600
C831        C  0.91278741  0.77423516  0.51679191     0.05900
C832        C  0.92713245  0.76547002  0.53348203    -0.08700
C833        C  0.92622741  0.76659460  0.56283748     0.00900
C834        C  0.91061224  0.77657388  0.57597068     0.00700
C835        C  0.89677507  0.78601344  0.55905594    -0.12300
C836        C  0.89769409  0.78485121  0.52980579     0.01200
C837        C  0.94160530  0.75755246  0.57883549     0.40500
C838        C  0.88240116  0.79384314  0.51356904     0.37100
C839        C  0.90592217  0.73633800  0.49042980     0.36900
C840        C  0.91679119  0.80374593  0.42286541     0.37600
N841        N  0.95396106  0.75037449  0.59168187    -0.43200
N842        N  0.87017699  0.80099431  0.50044503    -0.43600
N843        N  0.91903319  0.81767334  0.40965924    -0.41000
N844        N  0.90309031  0.72268984  0.50400470    -0.42400
H845        H  0.90414523  0.73788373  0.43520536     0.13800
H846        H  0.91900567  0.80182894  0.47798906     0.10200
H847        H  0.93892801  0.75753138  0.52351869     0.11300
H848        H  0.88469259  0.79371485  0.56868455     0.17100
C849        C  0.98171778  0.77386783  0.27990525    -0.01100
C850        C  0.98476484  0.76012168  0.25843352     0.07500
C851        C  0.97105320  0.74528679  0.25450405    -0.07100
C852        C  0.95412878  0.74432270  0.27096275     0.04900
C853        C  0.95070246  0.75847310  0.29194375    -0.14300
C854        C  0.96475455  0.77303085  0.29625414    -0.07600
C855        C  0.00227228  0.76079254  0.24006575     0.05900
C856        C  0.01562006  0.74538952  0.24102850    -0.08700
C857        C  0.03264042  0.74565063  0.22471739     0.00900
C858        C  0.03668236  0.76178668  0.20719990     0.00700
C859        C  0.02295041  0.77694348  0.20576563    -0.12300
C860        C  0.00575721  0.77642630  0.22162950     0.01200
C861        C  0.04573121  0.72930039  0.22695691     0.40500
C862        C  0.99164003  0.79179341  0.21799155     0.37100
C863        C  0.99593585  0.78877338  0.28582443     0.36900
C864        C  0.94025939  0.72912232  0.26494477     0.37600
N865        N  0.05610471  0.71609723  0.22876502    -0.43200
N866        N  0.98029605  0.80405822  0.21492920    -0.43600
N867        N  0.92915942  0.71693764  0.26004623    -0.41000
N868        N  0.00733783  0.80071794  0.29050909    -0.42400
H869        H  0.96249450  0.78384421  0.31245944     0.13800
H870        H  0.97343713  0.73461117  0.23813539     0.10200
H871        H  0.01281776  0.73319826  0.25487541     0.11300
H872        H  0.02553800  0.78921068  0.19198811     0.17100
C873        C  0.71163524  0.40526612  0.01107076    -0.01100
C874        C  0.71719766  0.42304943  0.99865747     0.07500
C875        C  0.72214244  0.43871166  0.01603903    -0.07100
C876        C  0.72236945  0.43670640  0.04527567     0.04900
C877        C  0.71739623  0.41870206  0.05775624    -0.14300
C878        C  0.71166038  0.40328526  0.04031044    -0.07600
C879        C  0.71866438  0.42531115  0.96764547     0.05900
C880        C  0.70204381  0.42249384  0.95102472    -0.08700
C881        C  0.70321398  0.42297921  0.92166844     0.00900
C882        C  0.72137319  0.42646215  0.90833658     0.00700
C883        C  0.73776692  0.43021997  0.92514370    -0.12300
C884        C  0.73658837  0.42959471  0.95442600     0.01200
C885        C  0.68552725  0.41977054  0.90598368     0.40500
C886        C  0.75423683  0.43244701  0.97035753     0.37100
C887        C  0.70673986  0.38854724  0.99423340     0.36900
C888        C  0.72760943  0.45345132  0.06182673     0.37600
N889        N  0.67130612  0.41719993  0.89351009    -0.43200
N890        N  0.76839313  0.43476452  0.98307657    -0.43600
N891        N  0.73180436  0.46686606  0.07510998    -0.41000
N892        N  0.70281740  0.37516414  0.98071557    -0.42400
H893        H  0.70782170  0.38937546  0.04946399     0.13800
H894        H  0.72610176  0.45251878  0.00665695     0.10200
H895        H  0.68814339  0.41957599  0.96106832     0.11300
H896        H  0.75181579  0.43292544  0.91542221     0.17100
C897        C  0.80666163  0.36250593  0.17113076    -0.01100
C898        C  0.80822665  0.34581695  0.15423448     0.07500
C899        C  0.79394914  0.34209442  0.13401853    -0.07100
C900        C  0.77793666  0.35450174  0.13078685     0.04900
C901        C  0.77585652  0.37092811  0.14841214    -0.14300
C902        C  0.79060008  0.37491756  0.16807736    -0.07600
C903        C  0.82417734  0.33154817  0.15798686     0.05900
C904        C  0.81978439  0.31356026  0.17021121    -0.08700
C905        C  0.83417055  0.29930338  0.17327502     0.00900
C906        C  0.85338337  0.30297446  0.16381693     0.00700
C907        C  0.85783406  0.32118213  0.15214765    -0.12300
C908        C  0.84338404  0.33539538  0.14901292     0.01200
C909        C  0.82891971  0.28127514  0.18684333     0.40500
C910        C  0.84839873  0.35353262  0.13564561     0.37100
C911        C  0.82099650  0.36674034  0.19238759     0.36900
C912        C  0.76411137  0.35007084  0.10893236     0.37600
N913        N  0.82475977  0.26685739  0.19781257    -0.43200
N914        N  0.85240229  0.36806651  0.12489531    -0.43600
N915        N  0.75309049  0.34653138  0.09133129    -0.41000
N916        N  0.83253481  0.37005731  0.20938222    -0.42400
H917        H  0.78932915  0.38745388  0.18170613     0.13800
H918        H  0.79530295  0.32934923  0.12079029     0.10200
H919        H  0.80503104  0.31066817  0.17734358     0.11300
H920        H  0.87248117  0.32409676  0.14460993     0.17100
C921        C  0.72171057  0.58209680  0.45560692    -0.01100
C922        C  0.71806366  0.59903650  0.47140390     0.07500
C923        C  0.71436572  0.61652905  0.45730541    -0.07100
C924        C  0.71450633  0.61746539  0.42799750     0.04900
C925        C  0.71835686  0.60052925  0.41206357    -0.14300
C926        C  0.72179921  0.58296208  0.42625563    -0.07600
C927        C  0.71933711  0.59931250  0.50254430     0.05900
C928        C  0.73706339  0.59446046  0.51535951    -0.08700
C929        C  0.73957565  0.59642166  0.54434169     0.00900
C930        C  0.72422902  0.60392450  0.56113595     0.00700
C931        C  0.70620992  0.60797233  0.54833480    -0.12300
C932        C  0.70365215  0.60564780  0.51939859     0.01200
C933        C  0.75804084  0.59043885  0.55602253     0.40500
C934        C  0.68476778  0.60974616  0.50743887     0.37100
C935        C  0.72545100  0.56367440  0.46901241     0.36900
C936        C  0.71186957  0.63627855  0.41513858     0.37600
N937        N  0.77281988  0.58549521  0.56528236    -0.43200
N938        N  0.66964478  0.61296809  0.49777422    -0.43600
N939        N  0.70985663  0.65142438  0.40501487    -0.41000
N940        N  0.72854261  0.54891157  0.47972010    -0.42400
H941        H  0.72480172  0.56986110  0.41439165     0.13800
H942        H  0.71197330  0.62969161  0.46933000     0.10200
H943        H  0.74916091  0.58947971  0.50254423     0.11300
H944        H  0.69411983  0.61330443  0.56084559     0.17100
C945        C  0.78927488  0.67613633  0.32039152    -0.01100
C946        C  0.80798443  0.67082614  0.32978545     0.07500
C947        C  0.81159106  0.65147042  0.33740529    -0.07100
C948        C  0.79680266  0.63742964  0.33595904     0.04900
C949        C  0.77797652  0.64276506  0.32650026    -0.14300
C950        C  0.77457521  0.66219290  0.31880007    -0.07600
C951        C  0.82371115  0.68547225  0.33258682     0.05900
C952        C  0.82111546  0.70083497  0.35145939    -0.08700
C953        C  0.83503009  0.71557978  0.35387029     0.00900
C954        C  0.85229170  0.71490500  0.33745680     0.00700
C955        C  0.85499003  0.69918849  0.31896656    -0.12300
C956        C  0.84082885  0.68465628  0.31625424     0.01200
C957        C  0.83086298  0.73122960  0.37311092     0.40500
C958        C  0.84372333  0.66956789  0.29564668     0.37100
C959        C  0.78480410  0.69577088  0.31187860     0.36900
C960        C  0.80134435  0.61796323  0.34511285     0.37600
N961        N  0.82732920  0.74376037  0.38846555    -0.43200
N962        N  0.84594175  0.65751417  0.27904770    -0.43600
N963        N  0.80515360  0.60243309  0.35261534    -0.41000
N964        N  0.78109724  0.71147827  0.30509137    -0.42400
H965        H  0.76030735  0.66662750  0.31140260     0.13800
H966        H  0.82593612  0.64741491  0.34495854     0.10200
H967        H  0.80794727  0.70143875  0.36409649     0.11300
H968        H  0.86797528  0.69846500  0.30598785     0.17100
C969        C  0.71388901  0.52135835  0.25618762    -0.01100
C970        C  0.73016355  0.51617683  0.23972418     0.07500
C971        C  0.74680450  0.52799851  0.24019551    -0.07100
C972        C  0.74741005  0.54486606  0.25664817     0.04900
C973        C  0.73095369  0.55028101  0.27297930    -0.14300
C974        C  0.71437926  0.53823398  0.27250328    -0.07600
C975        C  0.73006476  0.49831957  0.22221235     0.05900
C976        C  0.71664424  0.49678090  0.20017503    -0.08700
C977        C  0.71517211  0.47969592  0.18436454     0.00900
C978        C  0.72739124  0.46367847  0.19051132     0.00700
C979        C  0.74127263  0.46556117  0.21201624    -0.12300
C980        C  0.74264200  0.48261605  0.22785727     0.01200
C981        C  0.70119111  0.47922969  0.16179909     0.40500
C982        C  0.75651011  0.48337114  0.25055700     0.37100
C983        C  0.69667835  0.50929048  0.25719103     0.36900
C984        C  0.76520842  0.55606754  0.25636587     0.37600
N985        N  0.68998548  0.47893362  0.14370594    -0.43200
N986        N  0.76760262  0.48402741  0.26876958    -0.43600
N987        N  0.77955704  0.56491570  0.25604873    -0.41000
N988        N  0.68294006  0.49954628  0.25792862    -0.42400
H989        H  0.70164622  0.54198500  0.28489641     0.13800
H990        H  0.75938364  0.52400422  0.22761577     0.10200
H991        H  0.70713127  0.50894798  0.19552462     0.11300
H992        H  0.75079230  0.45347578  0.21703120     0.17100
C993        C  0.17798714  0.16726886  0.73310117    -0.01100
C994        C  0.15920824  0.17034628  0.74443853     0.07500
C995        C  0.15430834  0.16172617  0.77013312    -0.07100
C996        C  0.16790557  0.15053375  0.78490151     0.04900
C997        C  0.18695509  0.14790702  0.77398836    -0.14300
C998        C  0.19161660  0.15614670  0.74785954    -0.07600
C999        C  0.14468003  0.18280488  0.72996468     0.05900
C1000       C  0.13851640  0.17778905  0.70290382    -0.08700
C1001       C  0.12643250  0.19017805  0.68739801     0.00900
C1002       C  0.12008593  0.20796661  0.69921425     0.00700
C1003       C  0.12540798  0.21232938  0.72696974    -0.12300
C1004       C  0.13764592  0.20005643  0.74225773     0.01200
C1005       C  0.12145556  0.18441903  0.65922492     0.40500
C1006       C  0.14360169  0.20610436  0.76992387     0.37100
C1007       C  0.18380396  0.17581390  0.70671568     0.36900
C1008       C  0.16163638  0.14148727  0.81069977     0.37600
N1009       N  0.11758037  0.17969899  0.63664013    -0.43200
N1010       N  0.14830376  0.21108206  0.79205897    -0.43600
N1011       N  0.15657301  0.13414931  0.83129531    -0.41000
N1012       N  0.18838757  0.18259189  0.68549999    -0.42400
H1013       H  0.20610136  0.15421657  0.73909958     0.13800
H1014       H  0.13975681  0.16373366  0.77863980     0.10200
H1015       H  0.14364100  0.16435908  0.69357078     0.11300
H1016       H  0.12057761  0.22577007  0.73657259     0.17100
C1017       C  0.14521120  0.85015203  0.78449851    -0.01100
C1018       C  0.14979347  0.84748035  0.75587528     0.07500
C1019       C  0.14327315  0.83062306  0.74233827    -0.07100
C1020       C  0.13235229  0.81657222  0.75661291     0.04900
C1021       C  0.12803167  0.81898498  0.78543518    -0.14300
C1022       C  0.13457881  0.83590485  0.79902159    -0.07600
C1023       C  0.16230722  0.86138809  0.73996015     0.05900
C1024       C  0.18115398  0.86534478  0.74978850    -0.08700
C1025       C  0.19410796  0.87692617  0.73436833     0.00900
C1026       C  0.18831949  0.88478954  0.70818277     0.00700
C1027       C  0.16925342  0.88115603  0.69872764    -0.12300
C1028       C  0.15632577  0.86959341  0.71424286     0.01200
C1029       C  0.21337059  0.87987118  0.74578728     0.40500
C1030       C  0.13703375  0.86627826  0.70316478     0.37100
C1031       C  0.15091419  0.86755760  0.79924017     0.36900
C1032       C  0.12637718  0.79956408  0.74118336     0.37600
N1033       N  0.22879277  0.88216327  0.75502036    -0.43200
N1034       N  0.12163341  0.86353660  0.69412668    -0.43600
N1035       N  0.12152812  0.78593500  0.72885447    -0.41000
N1036       N  0.15549096  0.88153365  0.81096992    -0.42400
H1037       H  0.13126322  0.83811246  0.82102535     0.13800
H1038       H  0.14705035  0.82824354  0.72051610     0.10200
H1039       H  0.18599387  0.85885803  0.76929065     0.11300
H1040       H  0.16445635  0.88710024  0.67885872     0.17100
C1041       C  0.22248116  0.00448674  0.70103658    -0.01100
C1042       C  0.23447503  0.00724573  0.72464209     0.07500
C1043       C  0.24664058  0.99206250  0.73347179    -0.07100
C1044       C  0.24675169  0.97416072  0.71950153     0.04900
C1045       C  0.23420095  0.97112231  0.69637121    -0.14300
C1046       C  0.22229929  0.98652112  0.68733418    -0.07600
C1047       C  0.23408182  0.02561832  0.74096207     0.05900
C1048       C  0.21700154  0.03072557  0.75542323    -0.08700
C1049       C  0.21608487  0.04769163  0.77160952     0.00900
C1050       C  0.23256617  0.06004534  0.77341241     0.00700
C1051       C  0.24962659  0.05483797  0.75875278    -0.12300
C1052       C  0.25052783  0.03779891  0.74278989     0.01200
C1053       C  0.19792644  0.05205094  0.78565710     0.40500
C1054       C  0.26838670  0.03329191  0.72806858     0.37100
C1055       C  0.21062269  0.02003127  0.69001889     0.36900
C1056       C  0.25950842  0.95913532  0.72996808     0.37600
N1057       N  0.18333324  0.05543730  0.79688535    -0.43200
N1058       N  0.28272332  0.02968406  0.71632313    -0.43600
N1059       N  0.26981141  0.94717135  0.73838975    -0.41000
N1060       N  0.20119998  0.03247925  0.68096956    -0.42400
H1061       H  0.21287764  0.98459445  0.66932699     0.13800
H1062       H  0.25590300  0.99414653  0.75162047     0.10200
H1063       H  0.20434917  0.02131215  0.75417111     0.11300
H1064       H  0.26240441  0.06408277  0.75978000     0.17100
C1065       C  0.30867150  0.35694264  0.72882388    -0.01100
C1066       C  0.32712590  0.35258894  0.71746443     0.07500
C1067       C  0.33218961  0.35979712  0.69099645    -0.07100
C1068       C  0.31918043  0.37138119  0.67574915     0.04900
C1069       C  0.30058078  0.37590120  0.68708823    -0.14300
C1070       C  0.29564689  0.36855151  0.71372610    -0.07600
C1071       C  0.34102862  0.33986381  0.73246927     0.05900
C1072       C  0.34330909  0.32069351  0.72337259    -0.08700
C1073       C  0.35540146  0.30775424  0.73781664     0.00900
C1074       C  0.36554730  0.31402051  0.76208308     0.00700
C1075       C  0.36358816  0.33350791  0.77059383    -0.12300
C1076       C  0.35150572  0.34640294  0.75596669     0.01200
C1077       C  0.35668011  0.28812163  0.72733125     0.40500
C1078       C  0.35011063  0.36631380  0.76524132     0.37100
C1079       C  0.30260216  0.34915543  0.75557390     0.36900
C1080       C  0.32536442  0.37812663  0.64848908     0.37600
N1081       N  0.35766662  0.27240556  0.71885108    -0.43200
N1082       N  0.34896932  0.38231067  0.77248886    -0.43600
N1083       N  0.33035476  0.38349270  0.62662857    -0.41000
N1084       N  0.29776147  0.34283414  0.77696441    -0.42400
H1085       H  0.28147125  0.37169343  0.72277945     0.13800
H1086       H  0.34636002  0.35627092  0.68219006     0.10200
H1087       H  0.33529473  0.31573353  0.70515080     0.11300
H1088       H  0.37136405  0.33869651  0.78887307     0.17100
C1089       C  0.29569182  0.18625484  0.80372064    -0.01100
C1090       C  0.31478593  0.18010465  0.80996555     0.07500
C1091       C  0.31810794  0.16064205  0.81712309    -0.07100
C1092       C  0.30258146  0.14739238  0.81878264     0.04900
C1093       C  0.28325880  0.15369005  0.81338363    -0.14300
C1094       C  0.28016074  0.17315330  0.80566203    -0.07600
C1095       C  0.33097891  0.19433253  0.81153877     0.05900
C1096       C  0.33087454  0.20764278  0.83369732    -0.08700
C1097       C  0.34463460  0.22256326  0.83508262     0.00900
C1098       C  0.35899172  0.22439882  0.81387198     0.00700
C1099       C  0.35955877  0.21050496  0.79222185    -0.12300
C1100       C  0.34563717  0.19558016  0.79086533     0.01200
C1101       C  0.34360226  0.23569166  0.85863457     0.40500
C1102       C  0.34613265  0.18223944  0.76754375     0.37100
C1103       C  0.29177466  0.20596935  0.79502829     0.36900
C1104       C  0.30688019  0.12771172  0.82719702     0.37600
N1105       N  0.34281030  0.24627205  0.87744010    -0.43200
N1106       N  0.34648371  0.17156057  0.74882690    -0.43600
N1107       N  0.31035547  0.11194255  0.83395524    -0.41000
N1108       N  0.28875593  0.22175510  0.78791922    -0.42400
H1109       H  0.26553734  0.17818090  0.80096521     0.13800
H1110       H  0.33279046  0.15593313  0.82213054     0.10200
H1111       H  0.31969121  0.20655496  0.84975765     0.11300
H1112       H  0.37049334  0.21163996  0.77584275     0.17100
C1113       C  0.64595598  0.32760982  0.73901256    -0.01100
C1114       C  0.65186300  0.34488512  0.72569611     0.07500
C1115       C  0.64623110  0.34838606  0.69795029    -0.07100
C1116       C  0.63515349  0.33473073  0.68311449     0.04900
C1117       C  0.62994554  0.31690980  0.69599739    -0.14300
C1118       C  0.63520713  0.31379995  0.72413570    -0.07600
C1119       C  0.66499818  0.35882554  0.73984430     0.05900
C1120       C  0.68469290  0.35917010  0.73206827    -0.08700
C1121       C  0.69802880  0.37106950  0.74609299     0.00900
C1122       C  0.69161011  0.38302180  0.76852532     0.00700
C1123       C  0.67166593  0.38299985  0.77561167    -0.12300
C1124       C  0.65841011  0.37104638  0.76151629     0.01200
C1125       C  0.71810892  0.37049330  0.73687959     0.40500
C1126       C  0.63812428  0.37149830  0.76964345     0.37100
C1127       C  0.65124266  0.32350626  0.76769280     0.36900
C1128       C  0.62986003  0.33932588  0.65461014     0.37600
N1129       N  0.73415928  0.36993886  0.72933735    -0.43200
N1130       N  0.62185631  0.37185095  0.77613760    -0.43600
N1131       N  0.62560358  0.34317900  0.63181873    -0.41000
N1132       N  0.65541120  0.32027934  0.79071533    -0.42400
H1133       H  0.63112187  0.30040104  0.73455547     0.13800
H1134       H  0.65071963  0.36175244  0.68777245     0.10200
H1135       H  0.68972047  0.34979701  0.71526185     0.11300
H1136       H  0.66638871  0.39212812  0.79251714     0.17100
C1137       C  0.48599246  0.28282403  0.75693730    -0.01100
C1138       C  0.49068382  0.26592853  0.74175708     0.07500
C1139       C  0.47788383  0.25013602  0.74187875    -0.07100
C1140       C  0.46022515  0.25108727  0.75650995     0.04900
C1141       C  0.45525376  0.26816392  0.77149022    -0.14300
C1142       C  0.46833718  0.28386894  0.77155248    -0.07600
C1143       C  0.50880409  0.26468873  0.72518648     0.05900
C1144       C  0.52437814  0.25373496  0.73554219    -0.08700
C1145       C  0.54228829  0.25335982  0.72144367     0.00900
C1146       C  0.54478380  0.26435976  0.69655262     0.00700
C1147       C  0.52879839  0.27480680  0.68587678    -0.12300
C1148       C  0.51086025  0.27485752  0.69979818     0.01200
C1149       C  0.55775965  0.24186995  0.73350681     0.40500
C1150       C  0.49463952  0.28518874  0.68754862     0.37100
C1151       C  0.49921249  0.29913855  0.75790396     0.36900
C1152       C  0.44726881  0.23459848  0.75477132     0.37600
N1153       N  0.57000308  0.23253222  0.74334174    -0.43200
N1154       N  0.48153677  0.29329792  0.67774243    -0.43600
N1155       N  0.43685882  0.22140987  0.75336392    -0.41000
N1156       N  0.50992947  0.31210819  0.75856550    -0.42400
H1157       H  0.46481363  0.29697966  0.78309048     0.13800
H1158       H  0.48157327  0.23717402  0.73008007     0.10200
H1159       H  0.52261289  0.24574730  0.75499101     0.11300
H1160       H  0.53025587  0.28296070  0.66653620     0.17100
C1161       C  0.83875130  0.82265697  0.74751483    -0.01100
C1162       C  0.83772361  0.84228436  0.73954081     0.07500
C1163       C  0.84891028  0.84897789  0.71698248    -0.07100
C1164       C  0.86118559  0.83635463  0.70219609     0.04900
C1165       C  0.86245032  0.81656319  0.71017367    -0.14300
C1166       C  0.85109000  0.81000133  0.73293769    -0.07600
C1167       C  0.82523418  0.85614269  0.75484582     0.05900
C1168       C  0.83313624  0.86631862  0.77749992    -0.08700
C1169       C  0.82162181  0.87904374  0.79332773     0.00900
C1170       C  0.80170736  0.88169869  0.78639958     0.00700
C1171       C  0.79403393  0.87164372  0.76321976    -0.12300
C1172       C  0.80559715  0.85894461  0.74751215     0.01200
C1173       C  0.83066335  0.88873223  0.81675856     0.40500
C1174       C  0.79697247  0.84875490  0.72418478     0.37100
C1175       C  0.82718314  0.81525690  0.77051125     0.36900
C1176       C  0.87230962  0.84428899  0.67917229     0.37600
N1177       N  0.83801667  0.89643351  0.83551485    -0.43200
N1178       N  0.79002994  0.84059675  0.70550969    -0.43600
N1179       N  0.88118371  0.85071337  0.66070783    -0.41000
N1180       N  0.81783037  0.80943084  0.78890659    -0.42400
H1181       H  0.85169413  0.79489825  0.73931503     0.13800
H1182       H  0.84804212  0.86414695  0.71095847     0.10200
H1183       H  0.84831393  0.86409126  0.78302589     0.11300
H1184       H  0.77886407  0.87350632  0.75743341     0.17100
C1185       C  0.86180830  0.19433873  0.73436681    -0.01100
C1186       C  0.84832605  0.18119429  0.74614864     0.07500
C1187       C  0.84519028  0.18132910  0.77516949    -0.07100
C1188       C  0.85462036  0.19484402  0.79240473     0.04900
C1189       C  0.86750273  0.20869462  0.78052925    -0.14300
C1190       C  0.87112238  0.20800332  0.75148465    -0.07600
C1191       C  0.83627179  0.16815739  0.72845110     0.05900
C1192       C  0.83840275  0.14794305  0.73076746    -0.08700
C1193       C  0.82642603  0.13529798  0.71542225     0.00900
C1194       C  0.81215629  0.14295600  0.69707860     0.00700
C1195       C  0.81027314  0.16320348  0.69468888    -0.12300
C1196       C  0.82188560  0.17574756  0.71046432     0.01200
C1197       C  0.82918639  0.11464360  0.71888664     0.40500
C1198       C  0.81794241  0.19632915  0.70910358     0.37100
C1199       C  0.86633755  0.19399257  0.70478745     0.36900
C1200       C  0.85013250  0.19453137  0.82197253     0.37600
N1201       N  0.83142363  0.09810204  0.72178983    -0.43200
N1202       N  0.81464959  0.21279897  0.70814971    -0.43600
N1203       N  0.84653826  0.19425071  0.84567992    -0.41000
N1204       N  0.86999126  0.19365461  0.68109904    -0.42400
H1205       H  0.88120674  0.21822893  0.74202689     0.13800
H1206       H  0.83484387  0.17120049  0.78428006     0.10200
H1207       H  0.84930851  0.14205648  0.74483838     0.11300
H1208       H  0.79908790  0.16932396  0.68128604     0.17100
C1209       C  0.70626863  0.18330307  0.65637435    -0.01100
C1210       C  0.68665896  0.17730369  0.65468801     0.07500
C1211       C  0.68235157  0.15739449  0.65463094    -0.07100
C1212       C  0.69724951  0.14346333  0.65604886     0.04900
C1213       C  0.71701369  0.14943429  0.65715346    -0.14300
C1214       C  0.72117113  0.16945225  0.65745695    -0.07600
C1215       C  0.67056168  0.19171173  0.65306500     0.05900
C1216       C  0.66974774  0.20431825  0.62999146    -0.08700
C1217       C  0.65573963  0.21908574  0.62860753     0.00900
C1218       C  0.64228608  0.22155961  0.65086267     0.00700
C1219       C  0.64258388  0.20834024  0.67331962    -0.12300
C1220       C  0.65651844  0.19349218  0.67454680     0.01200
C1221       C  0.65520540  0.23104614  0.60373876     0.40500
C1222       C  0.65650895  0.18067465  0.69849988     0.37100
C1223       C  0.71142439  0.20362416  0.65774912     0.36900
C1224       C  0.69168620  0.12325389  0.65670343     0.37600
N1225       N  0.65470390  0.24053120  0.58371957    -0.43200
N1226       N  0.65644255  0.17033233  0.71762317    -0.43600
N1227       N  0.68719414  0.10706020  0.65736979    -0.41000
N1228       N  0.71549078  0.21991359  0.65891790    -0.42400
H1229       H  0.73616397  0.17440339  0.65852405     0.13800
H1230       H  0.66726254  0.15273429  0.65346332     0.10200
H1231       H  0.68022127  0.20266866  0.61307923     0.11300
H1232       H  0.63221176  0.20988425  0.69037162     0.17100
C1233       C  0.75257223  0.04325896  0.75206309    -0.01100
C1234       C  0.76157431  0.02564674  0.74450134     0.07500
C1235       C  0.77082021  0.02407585  0.71842574    -0.07100
C1236       C  0.77134822  0.03978017  0.69982360     0.04900
C1237       C  0.76255415  0.05768333  0.70735515    -0.14300
C1238       C  0.75314473  0.05908980  0.73357693    -0.07600
C1239       C  0.76112955  0.00837942  0.76301117     0.05900
C1240       C  0.74383199  0.99769414  0.76519141    -0.08700
C1241       C  0.74319457  0.98032362  0.78043099     0.00900
C1242       C  0.76021030  0.97337641  0.79397415     0.00700
C1243       C  0.77744543  0.98439704  0.79209528    -0.12300
C1244       C  0.77799397  0.00177456  0.77684371     0.01200
C1245       C  0.72507169  0.96964652  0.78067297     0.40500
C1246       C  0.79595746  0.01269144  0.77575180     0.37100
C1247       C  0.74300578  0.04545652  0.77887366     0.36900
C1248       C  0.78080018  0.03681581  0.67309533     0.37600
N1249       N  0.71054417  0.96109435  0.78080964    -0.43200
N1250       N  0.81030381  0.02152300  0.77492129    -0.43600
N1251       N  0.78836622  0.03434171  0.65168337    -0.41000
N1252       N  0.73536810  0.04714679  0.80039314    -0.42400
H1253       H  0.74637095  0.07264331  0.73985238     0.13800
H1254       H  0.77754312  0.01040394  0.71251259     0.10200
H1255       H  0.73090148  0.00271833  0.75430896     0.11300
H1256       H  0.79058334  0.97941097  0.80246453     0.17100
C1257       C  0.64593806  0.68809945  0.76291678    -0.01100
C1258       C  0.64644542  0.68954760  0.73341798     0.07500
C1259       C  0.63525197  0.70392461  0.72025213    -0.07100
C1260       C  0.62423305  0.71721693  0.73590567     0.04900
C1261       C  0.62415054  0.71621585  0.76562283    -0.14300
C1262       C  0.63488128  0.70133135  0.77867413    -0.07600
C1263       C  0.65923263  0.67677835  0.71607009     0.05900
C1264       C  0.65651334  0.65658140  0.71673009    -0.08700
C1265       C  0.66921987  0.64406601  0.70237070     0.00900
C1266       C  0.68492319  0.65176290  0.68656951     0.00700
C1267       C  0.68704850  0.67204063  0.68492854    -0.12300
C1268       C  0.67451573  0.68450771  0.69961764     0.01200
C1269       C  0.66569559  0.62343474  0.70419312     0.40500
C1270       C  0.67826303  0.70513997  0.69863599     0.37100
C1271       C  0.65721372  0.67358768  0.77755538     0.36900
C1272       C  0.61342890  0.73179323  0.72066380     0.37600
N1273       N  0.66287380  0.60689625  0.70568698    -0.43200
N1274       N  0.68121953  0.72167922  0.69792197    -0.43600
N1275       N  0.60480097  0.74349001  0.70843836    -0.41000
N1276       N  0.66622293  0.66187817  0.78916292    -0.42400
H1277       H  0.63498154  0.70020987  0.80133745     0.13800
H1278       H  0.63538430  0.70494533  0.69756620     0.10200
H1279       H  0.64459168  0.65056141  0.72893180     0.11300
H1280       H  0.69904583  0.67820652  0.67304128     0.17100
C1281       C  0.66873829  0.81854764  0.81166085    -0.01100
C1282       C  0.66387408  0.83758748  0.82003557     0.07500
C1283       C  0.64430139  0.84216486  0.82555197    -0.07100
C1284       C  0.62971992  0.82789810  0.82402522     0.04900
C1285       C  0.63468608  0.80860255  0.81653081    -0.14300
C1286       C  0.65424423  0.80432828  0.81007352    -0.07600
C1287       C  0.67913412  0.85261584  0.82436252     0.05900
C1288       C  0.67916075  0.86942568  0.80773212    -0.08700
C1289       C  0.69391920  0.88342519  0.81047441     0.00900
C1290       C  0.70919425  0.88051886  0.83001620     0.00700
C1291       C  0.70854050  0.86403844  0.84740943    -0.12300
C1292       C  0.69364805  0.85031250  0.84496636     0.01200
C1293       C  0.69277129  0.90062014  0.79321441     0.40500
C1294       C  0.69341484  0.83409643  0.86417572     0.37100
C1295       C  0.68854679  0.81317040  0.80476544     0.36900
C1296       C  0.61008569  0.83337594  0.83163257     0.37600
N1297       N  0.69172406  0.91445061  0.77950034    -0.43200
N1298       N  0.69321568  0.82109879  0.87955482    -0.43600
N1299       N  0.59441202  0.83790782  0.83789091    -0.41000
N1300       N  0.70442305  0.80877414  0.79944752    -0.42400
H1301       H  0.65833557  0.78971683  0.80393331     0.13800
H1302       H  0.64051193  0.85679586  0.83200049     0.10200
H1303       H  0.66773092  0.87149055  0.79233753     0.11300
H1304       H  0.71982128  0.86168975  0.86293628     0.17100
C1305       C  0.33965918  0.67967665  0.69395249    -0.01100
C1306       C  0.33380801  0.68236698  0.72200110     0.07500
C1307       C  0.34009409  0.69885528  0.73654317    -0.07100
C1308       C  0.35192134  0.71278259  0.72357475     0.04900
C1309       C  0.35801749  0.71013081  0.69539775    -0.14300
C1310       C  0.35171204  0.69344450  0.68097036    -0.07600
C1311       C  0.32113186  0.66827276  0.73686790     0.05900
C1312       C  0.32898179  0.65750601  0.75907520    -0.08700
C1313       C  0.31731255  0.64485383  0.77485403     0.00900
C1314       C  0.29715711  0.64317722  0.76884849     0.00700
C1315       C  0.28946707  0.65383204  0.74622710    -0.12300
C1316       C  0.30124365  0.66620446  0.73022466     0.01200
C1317       C  0.32663441  0.63354291  0.79650264     0.40500
C1318       C  0.29252677  0.67686143  0.70738396     0.37100
C1319       C  0.33355538  0.66287686  0.67815101     0.36900
C1320       C  0.35714561  0.72969658  0.73978076     0.37600
N1321       N  0.33425946  0.62442188  0.81366222    -0.43200
N1322       N  0.28559441  0.68525820  0.68890288    -0.43600
N1323       N  0.36117427  0.74324918  0.75288026    -0.41000
N1324       N  0.32854790  0.64948208  0.66542614    -0.42400
H1325       H  0.35610324  0.69113695  0.65938104     0.13800
H1326       H  0.33548365  0.70096793  0.75810132     0.10200
H1327       H  0.34434377  0.65898713  0.76403647     0.11300
H1328       H  0.27411119  0.65268532  0.74110415     0.17100
C1329       C  0.34084116  0.83253265  0.66889796    -0.01100
C1330       C  0.32504800  0.83263628  0.64999418     0.07500
C1331       C  0.32378364  0.81799885  0.62969174    -0.07100
C1332       C  0.33727035  0.80280502  0.62883626     0.04900
C1333       C  0.35278400  0.80224222  0.64832931    -0.14300
C1334       C  0.35461119  0.81746973  0.66779748    -0.07600
C1335       C  0.30914564  0.84727989  0.65145081     0.05900
C1336       C  0.31337504  0.86698435  0.64708640    -0.08700
C1337       C  0.29846346  0.88094186  0.64677977     0.00900
C1338       C  0.27881051  0.87516368  0.65061566     0.00700
C1339       C  0.27470854  0.85540389  0.65507089    -0.12300
C1340       C  0.28960770  0.84156234  0.65575356     0.01200
C1341       C  0.30378163  0.90093292  0.64179622     0.40500
C1342       C  0.28452220  0.82158880  0.66152339     0.37100
C1343       C  0.34274836  0.84718308  0.69035582     0.36900
C1344       C  0.33471342  0.78809212  0.60760437     0.37600
N1345       N  0.30803340  0.91696759  0.63783821    -0.43200
N1346       N  0.28052246  0.80557471  0.66613902    -0.43600
N1347       N  0.33254490  0.77630299  0.59062011    -0.41000
N1348       N  0.34431007  0.85891048  0.70756964    -0.42400
H1349       H  0.36644291  0.81728093  0.68283325     0.13800
H1350       H  0.31188484  0.81824930  0.61474450     0.10200
H1351       H  0.32834928  0.87142247  0.64346780     0.11300
H1352       H  0.25978922  0.85071504  0.65847898     0.17100
C1353       C  0.46693858  0.76845552  0.73551888    -0.01100
C1354       C  0.48386723  0.75862378  0.72654845     0.07500
C1355       C  0.48314009  0.74728952  0.70216730    -0.07100
C1356       C  0.46588596  0.74565935  0.68665045     0.04900
C1357       C  0.44895802  0.75588349  0.69522677    -0.14300
C1358       C  0.44980916  0.76723005  0.71971555    -0.07600
C1359       C  0.50236536  0.75966387  0.74262806     0.05900
C1360       C  0.50298368  0.75185638  0.76974558    -0.08700
C1361       C  0.52009716  0.75253216  0.78567070     0.00900
C1362       C  0.53723516  0.76085892  0.77423073     0.00700
C1363       C  0.53647836  0.76885642  0.74709902    -0.12300
C1364       C  0.51925235  0.76838338  0.73136090     0.01200
C1365       C  0.51931747  0.74523740  0.81401595     0.40500
C1366       C  0.51906140  0.77740872  0.70402863     0.37100
C1367       C  0.46681265  0.77988532  0.76088910     0.36900
C1368       C  0.46613372  0.73343760  0.66207535     0.37600
N1369       N  0.51857207  0.73951984  0.83680387    -0.43200
N1370       N  0.51881790  0.78471193  0.68218096    -0.43600
N1371       N  0.46635608  0.72352749  0.64249345    -0.41000
N1372       N  0.46673432  0.78886834  0.78138003    -0.42400
H1373       H  0.43695153  0.77498078  0.72684960     0.13800
H1374       H  0.49608410  0.73949924  0.69543225     0.10200
H1375       H  0.48995802  0.74529691  0.77856724     0.11300
H1376       H  0.54941375  0.77541315  0.73802560     0.17100
C1377       C  0.15243436  0.18329023  0.27319399    -0.01100
C1378       C  0.15339619  0.18369158  0.24374215     0.07500
C1379       C  0.14254621  0.19756520  0.22902297    -0.07100
C1380       C  0.13104229  0.21124283  0.24319824     0.04900
C1381       C  0.13016459  0.21110716  0.27292239    -0.14300
C1382       C  0.14078973  0.19680321  0.28749290    -0.07600
C1383       C  0.16648526  0.17048643  0.22789427     0.05900
C1384       C  0.16151068  0.15084295  0.22490759    -0.08700
C1385       C  0.17357002  0.13809117  0.20980483     0.00900
C1386       C  0.19081630  0.14513689  0.19693528     0.00700
C1387       C  0.19581351  0.16479035  0.20046388    -0.12300
C1388       C  0.18395302  0.17736353  0.21593885     0.01200
C1389       C  0.16829905  0.11779875  0.20901510     0.40500
C1390       C  0.19036647  0.19711238  0.22017875     0.37100
C1391       C  0.16406988  0.16976052  0.28913385     0.36900
C1392       C  0.12058185  0.22526540  0.22647209     0.37600
N1393       N  0.16414173  0.10151096  0.20865029    -0.43200
N1394       N  0.19562822  0.21287335  0.22381570    -0.43600
N1395       N  0.11230581  0.23647615  0.21287680    -0.41000
N1396       N  0.17355098  0.15896247  0.30175423    -0.42400
H1397       H  0.14050288  0.19649445  0.31020767     0.13800
H1398       H  0.14335763  0.19789606  0.20631609     0.10200
H1399       H  0.14825045  0.14545504  0.23460992     0.11300
H1400       H  0.20912499  0.17041538  0.19120570     0.17100
C1401       C  0.20324207  0.10528103  0.95057099    -0.01100
C1402       C  0.21946533  0.10422428  0.96860420     0.07500
C1403       C  0.23826630  0.10412639  0.95698385    -0.07100
C1404       C  0.24117756  0.10547814  0.92797533     0.04900
C1405       C  0.22496557  0.10713203  0.90974284    -0.14300
C1406       C  0.20608340  0.10691534  0.92150317    -0.07600
C1407       C  0.21746488  0.10313465  0.99966933     0.05900
C1408       C  0.22459067  0.08666676  0.01365065    -0.08700
C1409       C  0.22508444  0.08584984  0.04300088     0.00900
C1410       C  0.21875094  0.10194803  0.05899911     0.00700
C1411       C  0.21069242  0.11802334  0.04497258    -0.12300
C1412       C  0.21000856  0.11874362  0.01561445     0.01200
C1413       C  0.23180924  0.06818154  0.05611208     0.40500
C1414       C  0.20238725  0.13601731  0.00240137     0.37100
C1415       C  0.18358642  0.10417417  0.96138806     0.36900
C1416       C  0.26103510  0.10536539  0.91781416     0.37600
N1417       N  0.23701240  0.05397547  0.06669798    -0.43200
N1418       N  0.19610255  0.14979712  0.99185476    -0.43600
N1419       N  0.27695939  0.10521145  0.90970779    -0.41000
N1420       N  0.16787128  0.10325351  0.97019689    -0.42400
H1421       H  0.19344519  0.10787864  0.90796761     0.13800
H1422       H  0.25079263  0.10316345  0.97076094     0.10200
H1423       H  0.23001498  0.07448153  0.00152373     0.11300
H1424       H  0.20566767  0.13046150  0.05690850     0.17100
C1425       C  0.13318604  0.84444120  0.21889194    -0.01100
C1426       C  0.14802975  0.83814392  0.23714485     0.07500
C1427       C  0.15086177  0.81821056  0.24131794    -0.07100
C1428       C  0.13948212  0.80450162  0.22720200     0.04900
C1429       C  0.12484053  0.81069853  0.20826415    -0.14300
C1430       C  0.12184123  0.83075247  0.20448117    -0.07600
C1431       C  0.16144059  0.85199722  0.25114790     0.05900
C1432       C  0.15444197  0.86387774  0.27281061    -0.08700
C1433       C  0.16698408  0.87650820  0.28718743     0.00900
C1434       C  0.18698405  0.87747728  0.27969640     0.00700
C1435       C  0.19376781  0.86578649  0.25757074    -0.12300
C1436       C  0.18127993  0.85304200  0.24351992     0.01200
C1437       C  0.15878032  0.88841308  0.30915529     0.40500
C1438       C  0.18915889  0.84111162  0.22132532     0.37100
C1439       C  0.12970652  0.86486071  0.21417177     0.36900
C1440       C  0.14378675  0.78421798  0.23186725     0.37600
N1441       N  0.15206594  0.89790244  0.32672038    -0.43200
N1442       N  0.19544557  0.83147037  0.20361518    -0.43600
N1443       N  0.14723749  0.76796595  0.23559445    -0.41000
N1444       N  0.12695995  0.88125579  0.21056707    -0.42400
H1445       H  0.11063688  0.83577303  0.19020732     0.13800
H1446       H  0.16227965  0.81335245  0.25538202     0.10200
H1447       H  0.13916990  0.86309678  0.27870055     0.11300
H1448       H  0.20902667  0.86625606  0.25155839     0.17100
C1449       C  0.21043040  0.91061492  0.51896171    -0.01100
C1450       C  0.21799468  0.92678831  0.50442448     0.07500
C1451       C  0.22541372  0.94250459  0.51973049    -0.07100
C1452       C  0.22647030  0.94184575  0.54904190     0.04900
C1453       C  0.21949892  0.92532489  0.56368374    -0.14300
C1454       C  0.21098252  0.91013407  0.54828941    -0.07600
C1455       C  0.21990437  0.92677812  0.47336679     0.05900
C1456       C  0.20312509  0.92617230  0.45666462    -0.08700
C1457       C  0.20452056  0.92480649  0.42739907     0.00900
C1458       C  0.22309254  0.92391107  0.41428906     0.00700
C1459       C  0.23984641  0.92516323  0.43115322    -0.12300
C1460       C  0.23839239  0.92656035  0.46035832     0.01200
C1461       C  0.18661327  0.92439611  0.41154379     0.40500
C1462       C  0.25609478  0.92694595  0.47670400     0.37100
C1463       C  0.20336993  0.89371994  0.50422420     0.36900
C1464       C  0.23522687  0.95815744  0.56324396     0.37600
N1465       N  0.17228161  0.92409697  0.39878629    -0.43200
N1466       N  0.27016505  0.92730829  0.49003705    -0.43600
N1467       N  0.24239435  0.97125005  0.57439335    -0.41000
N1468       N  0.19784130  0.88012401  0.49242390    -0.42400
H1469       H  0.20566228  0.89731218  0.55907889     0.13800
H1470       H  0.23112901  0.95502540  0.50860701     0.10200
H1471       H  0.18888386  0.92656030  0.46659493     0.11300
H1472       H  0.25419999  0.92452533  0.42161201     0.17100
C1473       C  0.25233266  0.99210776  0.25342428    -0.01100
C1474       C  0.23553791  0.00338231  0.24847314     0.07500
C1475       C  0.21769418  0.99741003  0.25993779    -0.07100
C1476       C  0.21628817  0.98037993  0.27598636     0.04900
C1477       C  0.23306483  0.96871075  0.28060005    -0.14300
C1478       C  0.25099342  0.97498801  0.26929536    -0.07600
C1479       C  0.23606064  0.02113238  0.23066556     0.05900
C1480       C  0.22810174  0.02034468  0.20366368    -0.08700
C1481       C  0.22773010  0.03682666  0.18636935     0.00900
C1482       C  0.23547580  0.05467722  0.19607605     0.00700
C1483       C  0.24364262  0.05529862  0.22312332    -0.12300
C1484       C  0.24385184  0.03880426  0.24042662     0.01200
C1485       C  0.21947310  0.03482380  0.15871629     0.40500
C1486       C  0.25147902  0.04049126  0.26849200     0.37100
C1487       C  0.27099881  0.99756326  0.24179330     0.36900
C1488       C  0.19732985  0.97533458  0.28703002     0.37600
N1489       N  0.21284032  0.03321620  0.13655900    -0.43200
N1490       N  0.25749644  0.04183032  0.29104450    -0.43600
N1491       N  0.18206693  0.97145682  0.29580676    -0.41000
N1492       N  0.28596856  0.00192846  0.23247922    -0.42400
H1493       H  0.26404251  0.96638458  0.27253502     0.13800
H1494       H  0.20475477  0.00609953  0.25620063     0.10200
H1495       H  0.22209411  0.00675395  0.19610125     0.11300
H1496       H  0.24947323  0.06883787  0.23111409     0.17100
C1497       C  0.34695755  0.31732429  0.23072623    -0.01100
C1498       C  0.34601399  0.33707774  0.22327030     0.07500
C1499       C  0.35642444  0.34362963  0.19979695    -0.07100
C1500       C  0.36749773  0.33073237  0.18343627     0.04900
C1501       C  0.36851397  0.31079871  0.19083957    -0.14300
C1502       C  0.35822766  0.30446146  0.21474271    -0.07600
C1503       C  0.33338298  0.35089118  0.23884840     0.05900
C1504       C  0.34163924  0.36327105  0.25889539    -0.08700
C1505       C  0.32998761  0.37629572  0.27422580     0.00900
C1506       C  0.30961585  0.37710972  0.26940195     0.00700
C1507       C  0.30153850  0.36472447  0.24903137    -0.12300
C1508       C  0.31317528  0.35170465  0.23391482     0.01200
C1509       C  0.33944577  0.38880974  0.29428284     0.40500
C1510       C  0.30407780  0.33931051  0.21334326     0.37100
C1511       C  0.33618775  0.30987087  0.25444364     0.36900
C1512       C  0.37731167  0.33844762  0.15905510     0.37600
N1513       N  0.34706765  0.39884793  0.31032186    -0.43200
N1514       N  0.29680987  0.32935793  0.19686608    -0.43600
N1515       N  0.38506362  0.34471608  0.13946674    -0.41000
N1516       N  0.32748258  0.30387071  0.27336437    -0.42400
H1517       H  0.35865621  0.28928925  0.22078732     0.13800
H1518       H  0.35554461  0.35881986  0.19391007     0.10200
H1519       H  0.35722328  0.36269234  0.26262138     0.11300
H1520       H  0.28598715  0.36503375  0.24499656     0.17100
C1521       C  0.41403016  0.26467029  0.94791898    -0.01100
C1522       C  0.41229868  0.28249607  0.96219642     0.07500
C1523       C  0.40978192  0.29965323  0.94672210    -0.07100
C1524       C  0.40843125  0.29916395  0.91738532     0.04900
C1525       C  0.40959871  0.28118682  0.90309726    -0.14300
C1526       C  0.41278454  0.26416197  0.91869917    -0.07600
C1527       C  0.41173734  0.28308820  0.99330489     0.05900
C1528       C  0.42822047  0.27733754  0.00857504    -0.08700
C1529       C  0.42732161  0.27494163  0.03775417     0.00900
C1530       C  0.40960589  0.27855909  0.05223265     0.00700
C1531       C  0.39344614  0.28525426  0.03685758    -0.12300
C1532       C  0.39433085  0.28739297  0.00773813     0.01200
C1533       C  0.44472547  0.26843772  0.05190816     0.40500
C1534       C  0.37681492  0.29287211  0.99295297     0.37100
C1535       C  0.41610501  0.24657463  0.96295073     0.36900
C1536       C  0.40612728  0.31731091  0.90257938     0.37600
N1537       N  0.45877824  0.26317652  0.06295735    -0.43200
N1538       N  0.36277034  0.29720623  0.98109022    -0.43600
N1539       N  0.40434810  0.33186216  0.89070150    -0.41000
N1540       N  0.41774556  0.23214485  0.97516350    -0.42400
H1541       H  0.41364440  0.25024332  0.90813586     0.13800
H1542       H  0.40857437  0.31340738  0.95765992     0.10200
H1543       H  0.44165441  0.27406184  0.99748085     0.11300
H1544       H  0.37973490  0.28814626  0.04744008     0.17100
C1545       C  0.32463911  0.20652737  0.14075009    -0.01100
C1546       C  0.33034225  0.18689035  0.13937158     0.07500
C1547       C  0.35025215  0.18234145  0.13771708    -0.07100
C1548       C  0.36447006  0.19703860  0.13731293     0.04900
C1549       C  0.35879657  0.21682933  0.13875552    -0.14300
C1550       C  0.33875647  0.22119954  0.14043456    -0.07600
C1551       C  0.31556859  0.17107294  0.13891922     0.05900
C1552       C  0.30309030  0.16962810  0.11579489    -0.08700
C1553       C  0.28771470  0.15624356  0.11549462     0.00900
C1554       C  0.28452952  0.14392281  0.13887984     0.00700
C1555       C  0.29770913  0.14474712  0.16139872    -0.12300
C1556       C  0.31308034  0.15818192  0.16161514     0.01200
C1557       C  0.27553758  0.15561192  0.09085123     0.40500
C1558       C  0.32548943  0.15909763  0.18596261     0.37100
C1559       C  0.30434441  0.21197006  0.14307020     0.36900
C1560       C  0.38464393  0.19123608  0.13515314     0.37600
N1561       N  0.26586196  0.15516861  0.07101965    -0.43200
N1562       N  0.33537877  0.15975997  0.20555330    -0.43600
N1563       N  0.40078560  0.18646235  0.13335830    -0.41000
N1564       N  0.28807850  0.21628986  0.14493269    -0.42400
H1565       H  0.33399043  0.23618793  0.14169313     0.13800
H1566       H  0.35467330  0.16724400  0.13645619     0.10200
H1567       H  0.30516899  0.17931442  0.09809759     0.11300
H1568       H  0.29557593  0.13540714  0.17945158     0.17100
C1569       C  0.62842862  0.34189899  0.26342913    -0.01100
C1570       C  0.64096663  0.33696038  0.24115460     0.07500
C1571       C  0.64330965  0.31743380  0.23379075    -0.07100
C1572       C  0.63379083  0.30271290  0.24871918     0.04900
C1573       C  0.62161823  0.30748863  0.27182513    -0.14300
C1574       C  0.61891045  0.32722508  0.27856370    -0.07600
C1575       C  0.65313730  0.35163128  0.22663138     0.05900
C1576       C  0.67026362  0.35785968  0.23969468    -0.08700
C1577       C  0.68364121  0.36971715  0.22557909     0.00900
C1578       C  0.67990764  0.37568372  0.19763262     0.00700
C1579       C  0.66221043  0.37003901  0.18508030    -0.12300
C1580       C  0.64893350  0.35801546  0.19928319     0.01200
C1581       C  0.70111950  0.37519558  0.24041278     0.40500
C1582       C  0.63121270  0.35214237  0.18538254     0.37100
C1583       C  0.62507587  0.36192104  0.27097241     0.36900
C1584       C  0.63716050  0.28293796  0.23985571     0.37600
N1585       N  0.71510728  0.37947281  0.25244370    -0.43200
N1586       N  0.61696044  0.34739842  0.17440017    -0.43600
N1587       N  0.63991352  0.26713678  0.23258295    -0.41000
N1588       N  0.62229061  0.37797874  0.27690879    -0.42400
H1589       H  0.60946096  0.33126127  0.29586255     0.13800
H1590       H  0.65300180  0.31366499  0.21661557     0.10200
H1591       H  0.67347063  0.35291192  0.26077990     0.11300
H1592       H  0.65895921  0.37453263  0.16382085     0.17100
C1593       C  0.57094077  0.26188543  0.45697807    -0.01100
C1594       C  0.58431860  0.27282536  0.47278894     0.07500
C1595       C  0.59856809  0.28378781  0.45880127    -0.07100
C1596       C  0.60006675  0.28351010  0.42949605     0.04900
C1597       C  0.58720692  0.27180419  0.41354523    -0.14300
C1598       C  0.57250705  0.26139541  0.42772363    -0.07600
C1599       C  0.58458645  0.27200640  0.50391134     0.05900
C1600       C  0.58899362  0.25429226  0.51700215    -0.08700
C1601       C  0.59100121  0.25308042  0.54615364     0.00900
C1602       C  0.58852676  0.26990321  0.56280596     0.00700
C1603       C  0.58375956  0.28753783  0.54967322    -0.12300
C1604       C  0.58173882  0.28869746  0.52052345     0.01200
C1605       C  0.59686023  0.23469151  0.55806130     0.40500
C1606       C  0.57663591  0.30714065  0.50816390     0.37100
C1607       C  0.55534937  0.25121709  0.47032976     0.36900
C1608       C  0.61516316  0.29516386  0.41670868     0.37600
N1609       N  0.60166751  0.21995627  0.56747394    -0.43200
N1610       N  0.57253207  0.32195364  0.49834483    -0.43600
N1611       N  0.62726132  0.30460026  0.40662995    -0.41000
N1612       N  0.54279859  0.24274990  0.48103333    -0.42400
H1613       H  0.56226316  0.25261345  0.41598452     0.13800
H1614       H  0.60887554  0.29225920  0.47091958     0.10200
H1615       H  0.59147773  0.24147726  0.50426678     0.11300
H1616       H  0.58170993  0.30051423  0.56221568     0.17100
C1617       C  0.48442921  0.27445629  0.20471024    -0.01100
C1618       C  0.48671644  0.25989471  0.22514851     0.07500
C1619       C  0.47194867  0.24612486  0.22902274    -0.07100
C1620       C  0.45493059  0.24664997  0.21281763     0.04900
C1621       C  0.45257012  0.26116246  0.19198770    -0.14300
C1622       C  0.46750459  0.27497525  0.18832918    -0.07600
C1623       C  0.50433104  0.25900932  0.24300717     0.05900
C1624       C  0.50481044  0.26991665  0.26774088    -0.08700
C1625       C  0.52141895  0.26999903  0.28476855     0.00900
C1626       C  0.53810815  0.25913417  0.27685273     0.00700
C1627       C  0.53729745  0.24778424  0.25235743    -0.12300
C1628       C  0.52059210  0.24764702  0.23549945     0.01200
C1629       C  0.52067654  0.28104393  0.31047120     0.40500
C1630       C  0.52048665  0.23597146  0.21037933     0.37100
C1631       C  0.49926912  0.28903097  0.20032510     0.36900
C1632       C  0.43995887  0.23251835  0.21889097     0.37600
N1633       N  0.52010447  0.28980863  0.33114764    -0.43200
N1634       N  0.52032024  0.22661153  0.19024638    -0.43600
N1635       N  0.42797394  0.22121001  0.22395896    -0.41000
N1636       N  0.51118473  0.30070004  0.19691504    -0.42400
H1637       H  0.46599406  0.28625694  0.17261998     0.13800
H1638       H  0.47366327  0.23504272  0.24499882     0.10200
H1639       H  0.49214918  0.27843482  0.27369849     0.11300
H1640       H  0.54986680  0.23928160  0.24600488     0.17100
C1641       C  0.84452633  0.81124056  0.24558879    -0.01100
C1642       C  0.83867227  0.82937864  0.25633564     0.07500
C1643       C  0.84420240  0.83462755  0.28353352    -0.07100
C1644       C  0.85553539  0.82220241  0.30009423     0.04900
C1645       C  0.86169533  0.80400884  0.28933881    -0.14300
C1646       C  0.85605554  0.79884978  0.26194703    -0.07600
C1647       C  0.82610301  0.84286389  0.24015822     0.05900
C1648       C  0.80707374  0.84627182  0.24965323    -0.08700
C1649       C  0.79480073  0.85936526  0.23581259     0.00900
C1650       C  0.80155240  0.86937551  0.21165518     0.00700
C1651       C  0.82072306  0.86588901  0.20226409    -0.12300
C1652       C  0.83299781  0.85287375  0.21635517     0.01200
C1653       C  0.77549460  0.86222153  0.24728082     0.40500
C1654       C  0.85279953  0.85048558  0.20658200     0.37100
C1655       C  0.83821022  0.80471223  0.21832127     0.36900
C1656       C  0.86028736  0.82859343  0.32805770     0.37600
N1657       N  0.76006759  0.86450886  0.25662211    -0.43200
N1658       N  0.86869104  0.84859449  0.19881916    -0.43600
N1659       N  0.86394951  0.83384087  0.35047166    -0.41000
N1660       N  0.83306229  0.79944399  0.19653381    -0.42400
H1661       H  0.86035736  0.78491752  0.25334912     0.13800
H1662       H  0.83952071  0.84851461  0.29191643     0.10200
H1663       H  0.80182469  0.83869591  0.26813454     0.11300
H1664       H  0.82625997  0.87346394  0.18397778     0.17100
C1665       C  0.75505485  0.92032487  0.03017171    -0.01100
C1666       C  0.77310888  0.92055631  0.01602427     0.07500
C1667       C  0.79043916  0.91994528  0.03156826    -0.07100
C1668       C  0.78997604  0.91887954  0.06092580     0.04900
C1669       C  0.77183362  0.91843504  0.07514471    -0.14300
C1670       C  0.75455898  0.91935847  0.05938231    -0.07600
C1671       C  0.77395432  0.92126668  0.98498857     0.05900
C1672       C  0.76679004  0.93774889  0.97118099    -0.08700
C1673       C  0.76540134  0.93828775  0.94193214     0.00900
C1674       C  0.77117227  0.92196495  0.92589596     0.00700
C1675       C  0.77916066  0.90579335  0.93983594    -0.12300
C1676       C  0.78060917  0.90534605  0.96909992     0.01200
C1677       C  0.75820333  0.95588626  0.92916066     0.40500
C1678       C  0.78828274  0.88813071  0.98242413     0.37100
C1679       C  0.73680408  0.92038471  0.01510512     0.36900
C1680       C  0.80829860  0.91861361  0.07575482     0.37600
N1681       N  0.75250319  0.97008256  0.91909024    -0.24000
N1682       N  0.79450350  0.87439774  0.99317403    -0.43600
N1683       N  0.82301595  0.91844519  0.08757719    -0.41000
N1684       N  0.72219128  0.92041950  0.00302311    -0.42400
H1685       H  0.74050280  0.91883972  0.06984183     0.13800
H1686       H  0.80434784  0.92029538  0.02069408     0.10200
H1687       H  0.76195379  0.95013081  0.98340883     0.11300
H1688       H  0.78378980  0.89319080  0.92793926     0.17100
C1689       C  0.83468693  0.15913649  0.27143054    -0.01100
C1690       C  0.82804399  0.17646192  0.25885994     0.07500
C1691       C  0.80809799  0.18094999  0.26004760    -0.07100
C1692       C  0.79479021  0.16853054  0.27338135     0.04900
C1693       C  0.80142345  0.15111410  0.28608424    -0.14300
C1694       C  0.82146246  0.14676734  0.28498639    -0.07600
C1695       C  0.84151696  0.18974907  0.24353075     0.05900
C1696       C  0.85153506  0.18279678  0.21988614    -0.08700
C1697       C  0.86389955  0.19491984  0.20428737     0.00900
C1698       C  0.86645269  0.21453763  0.21226685     0.00700
C1699       C  0.85662253  0.22137144  0.23625054    -0.12300
C1700       C  0.84414222  0.20926835  0.25169065     0.01200
C1701       C  0.87396744  0.18667086  0.18051223     0.40500
C1702       C  0.83417007  0.21723709  0.27578691     0.37100
C1703       C  0.85503414  0.15374238  0.27080979     0.36900
C1704       C  0.77448132  0.17413020  0.27344867     0.37600
N1705       N  0.88203632  0.17998137  0.16149655    -0.43200
N1706       N  0.82608658  0.22366574  0.29498156    -0.43600
N1707       N  0.75820490  0.17860421  0.27340391    -0.41000
N1708       N  0.87131557  0.14932554  0.27017296    -0.42400
H1709       H  0.82687319  0.13351910  0.29449872     0.13800
H1710       H  0.80285800  0.19412612  0.25011567     0.10200
H1711       H  0.84950684  0.16784048  0.21340102     0.11300
H1712       H  0.85828104  0.23639627  0.24261064     0.17100
C1713       C  0.79457727  0.09754473  0.52297085    -0.01100
C1714       C  0.77799450  0.09689135  0.50566142     0.07500
C1715       C  0.75944548  0.09618462  0.51791348    -0.07100
C1716       C  0.75710018  0.09686490  0.54703003     0.04900
C1717       C  0.77367401  0.09842523  0.56463561    -0.14300
C1718       C  0.79232765  0.09846238  0.55218155    -0.07600
C1719       C  0.77935443  0.09773531  0.47466235     0.05900
C1720       C  0.77402946  0.08138256  0.45900561    -0.08700
C1721       C  0.77255695  0.08232375  0.42974948     0.00900
C1722       C  0.77633458  0.10005070  0.41563140     0.00700
C1723       C  0.78255612  0.11614870  0.43142138    -0.12300
C1724       C  0.78394537  0.11516490  0.46064954     0.01200
C1725       C  0.76682495  0.06492361  0.41505408     0.40500
C1726       C  0.78892187  0.13256335  0.47593222     0.37100
C1727       C  0.81397069  0.09704165  0.51114449     0.36900
C1728       C  0.73741135  0.09662112  0.55785758     0.37600
N1729       N  0.76222530  0.05093384  0.40337937    -0.43200
N1730       N  0.79284930  0.14652838  0.48815958    -0.43600
N1731       N  0.72157899  0.09638946  0.56632595    -0.41000
N1732       N  0.82947869  0.09649116  0.50154631    -0.42400
H1733       H  0.80520852  0.09933730  0.56524842     0.13800
H1734       H  0.74667855  0.09555810  0.50455359     0.10200
H1735       H  0.77051307  0.06796121  0.46980241     0.11300
H1736       H  0.78552120  0.12986545  0.42108814     0.17100
C1737       C  0.66585278  0.20153587  0.32074939    -0.01100
C1738       C  0.65978313  0.18220537  0.32463271     0.07500
C1739       C  0.63989776  0.17807386  0.32769939    -0.07100
C1740       C  0.62596403  0.19299533  0.32685032     0.04900
C1741       C  0.63204949  0.21255661  0.32361532    -0.14300
C1742       C  0.65208184  0.21645962  0.32050434    -0.07600
C1743       C  0.67418884  0.16623261  0.32508124     0.05900
C1744       C  0.68047936  0.15893691  0.35092522    -0.08700
C1745       C  0.69616235  0.14593124  0.35233509     0.00900
C1746       C  0.70595475  0.14029804  0.32747049     0.00700
C1747       C  0.69869055  0.14666958  0.30151975    -0.12300
C1748       C  0.68291483  0.15951000  0.30018547     0.01200
C1749       C  0.70175954  0.13853907  0.37948382     0.40500
C1750       C  0.67615557  0.16600454  0.27312250     0.37100
C1751       C  0.68617210  0.20640738  0.31681970     0.36900
C1752       C  0.60565505  0.18761309  0.32862935     0.37600
N1753       N  0.70618118  0.13249390  0.40119717    -0.43200
N1754       N  0.67061716  0.17119170  0.25148790    -0.43600
N1755       N  0.58940075  0.18315013  0.32980343    -0.41000
N1756       N  0.70242207  0.21033031  0.31346939    -0.42400
H1757       H  0.65711587  0.23126134  0.31772443     0.13800
H1758       H  0.63525928  0.16312466  0.33029808     0.10200
H1759       H  0.67349066  0.16387196  0.37006303     0.11300
H1760       H  0.70581461  0.14225037  0.28222985     0.17100
C1761       C  0.74706117  0.02396968  0.27171807    -0.01100
C1762       C  0.76043790  0.02041130  0.24983985     0.07500
C1763       C  0.77394826  0.03482171  0.24254677    -0.07100
C1764       C  0.77465513  0.05245743  0.25705272     0.04900
C1765       C  0.76136880  0.05607513  0.27925736    -0.14300
C1766       C  0.74754439  0.04170403  0.28606531    -0.07600
C1767       C  0.76099008  0.00158436  0.23471970     0.05900
C1768       C  0.74492660  0.99593534  0.21854074    -0.08700
C1769       C  0.74502167  0.97831542  0.20385411     0.00900
C1770       C  0.76151934  0.96594620  0.20527317     0.00700
C1771       C  0.77767446  0.97185411  0.22121684    -0.12300
C1772       C  0.77750095  0.98941413  0.23592470     0.01200
C1773       C  0.72815907  0.97364107  0.18708813     0.40500
C1774       C  0.79421901  0.99437098  0.25282225     0.37100
C1775       C  0.73323870  0.00936016  0.28054435     0.36900
C1776       C  0.78924124  0.06639657  0.24853292     0.37600
N1777       N  0.71464270  0.96994625  0.17362602    -0.43200
N1778       N  0.80758499  0.99838571  0.26639313    -0.43600
N1779       N  0.80101665  0.07747312  0.24167646    -0.41000
N1780       N  0.72220310  0.99762764  0.28765914    -0.42400
H1781       H  0.73728887  0.04412810  0.30304686     0.13800
H1782       H  0.78416075  0.03215286  0.22556913     0.10200
H1783       H  0.73232119  0.00541281  0.21725851     0.11300
H1784       H  0.79040134  0.96256045  0.22268166     0.17100
C1785       C  0.64230300  0.69416179  0.23823168    -0.01100
C1786       C  0.64931760  0.67730533  0.22480428     0.07500
C1787       C  0.64483962  0.67422798  0.19648826    -0.07100
C1788       C  0.63383750  0.68779596  0.18133328     0.04900
C1789       C  0.62715254  0.70497115  0.19458500    -0.14300
C1790       C  0.63146247  0.70781917  0.22309702    -0.07600
C1791       C  0.66182766  0.66305760  0.23979389     0.05900
C1792       C  0.65409825  0.65264334  0.26251547    -0.08700
C1793       C  0.66575848  0.63990745  0.27817236     0.00900
C1794       C  0.68571949  0.63746750  0.27118457     0.00700
C1795       C  0.69318926  0.64755578  0.24782574    -0.12300
C1796       C  0.68149164  0.66019003  0.23218967     0.01200
C1797       C  0.65673069  0.62972437  0.30124689     0.40500
C1798       C  0.69019938  0.67053376  0.20897733     0.37100
C1799       C  0.64642830  0.69799270  0.26737530     0.36900
C1800       C  0.63021515  0.68389102  0.15208049     0.37600
N1801       N  0.64936512  0.62158136  0.31966783    -0.43200
N1802       N  0.69718588  0.67876004  0.19033230    -0.43600
N1803       N  0.62730490  0.68073862  0.12863888    -0.41000
N1804       N  0.64965069  0.70100256  0.29076768    -0.42400
H1805       H  0.62640847  0.72082319  0.23367645     0.13800
H1806       H  0.65013985  0.66122935  0.18613172     0.10200
H1807       H  0.63889570  0.65463730  0.26818947     0.11300
H1808       H  0.70838642  0.64589338  0.24194540     0.17100
C1809       C  0.60439696  0.74104842  0.01251408    -0.01100
C1810       C  0.58889134  0.75032593  0.99843644     0.07500
C1811       C  0.57373463  0.75855552  0.01427937    -0.07100
C1812       C  0.57400208  0.75806332  0.04365560     0.04900
C1813       C  0.58974299  0.74912362  0.05788623    -0.14300
C1814       C  0.60465450  0.74044386  0.04188589    -0.07600
C1815       C  0.58813749  0.75152128  0.96724990     0.05900
C1816       C  0.58781936  0.73433642  0.95145193    -0.08700
C1817       C  0.58759944  0.73481218  0.92205721     0.00900
C1818       C  0.58726059  0.75286494  0.90779305     0.00700
C1819       C  0.58707000  0.77003694  0.92379060    -0.12300
C1820       C  0.58774540  0.76951987  0.95311491     0.01200
C1821       C  0.58788980  0.71650238  0.90735215     0.40500
C1822       C  0.58906481  0.78768923  0.96810273     0.37100
C1823       C  0.62060286  0.73270108  0.99732074     0.36900
C1824       C  0.55771527  0.76657990  0.05843646     0.37600
N1825       N  0.58822961  0.70174544  0.89576200    -0.43200
N1826       N  0.59024203  0.80229511  0.97996598    -0.43600
N1827       N  0.54460453  0.77338639  0.07018829    -0.41000
N1828       N  0.63357722  0.72601916  0.98511564    -0.42400
H1829       H  0.61688221  0.73358448  0.05232516     0.13800
H1830       H  0.56159207  0.76538897  0.00358696     0.10200
H1831       H  0.58792484  0.72044620  0.96218720     0.11300
H1832       H  0.58708231  0.78403724  0.91336926     0.17100
C1833       C  0.67257117  0.80950760  0.15372199    -0.01100
C1834       C  0.66745870  0.82841104  0.16234907     0.07500
C1835       C  0.64804689  0.83242541  0.16964409    -0.07100
C1836       C  0.63366679  0.81799013  0.16796220     0.04900
C1837       C  0.63869758  0.79907804  0.15867699    -0.14300
C1838       C  0.65828841  0.79511637  0.15198384    -0.07600
C1839       C  0.68215880  0.84421593  0.16265935     0.05900
C1840       C  0.69143727  0.84914183  0.13743135    -0.08700
C1841       C  0.70682151  0.86242864  0.13688949     0.00900
C1842       C  0.71291536  0.87146182  0.16200848     0.00700
C1843       C  0.70291514  0.86726649  0.18704963    -0.12300
C1844       C  0.68775593  0.85363194  0.18760670     0.01200
C1845       C  0.71600483  0.86639052  0.11020975     0.40500
C1846       C  0.67888687  0.84882747  0.21419298     0.37100
C1847       C  0.69244773  0.80449741  0.14661703     0.36900
C1848       C  0.61399452  0.82312748  0.17589313     0.37600
N1849       N  0.72334025  0.86942311  0.08877695    -0.43200
N1850       N  0.67182244  0.84497602  0.23553486    -0.43600
N1851       N  0.59824047  0.82727723  0.18229187    -0.41000
N1852       N  0.70837062  0.80058492  0.14081706    -0.42400
H1853       H  0.66253966  0.78072107  0.14508608     0.13800
H1854       H  0.64407911  0.84696861  0.17625534     0.10200
H1855       H  0.68693827  0.84214051  0.11813467     0.11300
H1856       H  0.70745404  0.87406184  0.20646753     0.17100
C1857       C  0.34874835  0.67489590  0.27151446    -0.01100
C1858       C  0.34337678  0.67790988  0.24333538     0.07500
C1859       C  0.35000474  0.69454250  0.22935678    -0.07100
C1860       C  0.36158192  0.70829292  0.24297460     0.04900
C1861       C  0.36696795  0.70542302  0.27134520    -0.14300
C1862       C  0.36063984  0.68847280  0.28511496    -0.07600
C1863       C  0.32982558  0.66474786  0.22832186     0.05900
C1864       C  0.31059775  0.66302504  0.23801639    -0.08700
C1865       C  0.29665470  0.65263110  0.22278226     0.00900
C1866       C  0.30190713  0.64368735  0.19707660     0.00700
C1867       C  0.32136889  0.64504499  0.18786380    -0.12300
C1868       C  0.33525160  0.65546155  0.20315889     0.01200
C1869       C  0.27708908  0.65181188  0.23400297     0.40500
C1870       C  0.35497513  0.65647531  0.19255906     0.37100
C1871       C  0.34201814  0.65818046  0.28704742     0.36900
C1872       C  0.36731945  0.72526331  0.22718636     0.37600
N1873       N  0.26142270  0.65121005  0.24305454    -0.43200
N1874       N  0.37076486  0.65731444  0.18401737    -0.43600
N1875       N  0.37173553  0.73885741  0.21438790    -0.41000
N1876       N  0.33653936  0.64490211  0.29968643    -0.42400
H1877       H  0.36446909  0.68606917  0.30688062     0.13800
H1878       H  0.34564354  0.69705119  0.20780746     0.10200
H1879       H  0.30631915  0.67034907  0.25719223     0.11300
H1880       H  0.32577420  0.63816714  0.16841875     0.17100
C1881       C  0.42067024  0.75216120  0.45359869    -0.01100
C1882       C  0.40559131  0.74404063  0.46993830     0.07500
C1883       C  0.38962726  0.73543304  0.45648280    -0.07100
C1884       C  0.38828063  0.73520868  0.42715813     0.04900
C1885       C  0.40313897  0.74385670  0.41064987    -0.14300
C1886       C  0.41931059  0.75211029  0.42427659    -0.07600
C1887       C  0.40563673  0.74537887  0.50106046     0.05900
C1888       C  0.40353204  0.76366607  0.51360228    -0.08700
C1889       C  0.40246303  0.76562307  0.54279353     0.00900
C1890       C  0.40360002  0.74896086  0.56018180     0.00700
C1891       C  0.40598344  0.73066177  0.54747495    -0.12300
C1892       C  0.40701264  0.72878006  0.51822694     0.01200
C1893       C  0.39923627  0.78483447  0.55403722     0.40500
C1894       C  0.40971014  0.70972200  0.50623829     0.37100
C1895       C  0.43776904  0.76040664  0.46656134     0.36900
C1896       C  0.37102044  0.72682860  0.41480228     0.37600
N1897       N  0.39657266  0.80021772  0.56303787    -0.43200
N1898       N  0.41191392  0.69447867  0.49653021    -0.43600
N1899       N  0.35717150  0.72012249  0.40493198    -0.41000
N1900       N  0.45146955  0.76690764  0.47710702    -0.42400
H1901       H  0.43092701  0.75861616  0.41200149     0.13800
H1902       H  0.37793491  0.72927963  0.46900124     0.10200
H1903       H  0.40227673  0.77644904  0.50042888     0.11300
H1904       H  0.40694186  0.71773953  0.56039434     0.17100
C1905       C  0.31940126  0.80624155  0.31732284    -0.01100
C1906       C  0.32401840  0.82604042  0.32103917     0.07500
C1907       C  0.34363097  0.83136066  0.32453774    -0.07100
C1908       C  0.35855468  0.81738902  0.32431285     0.04900
C1909       C  0.35397874  0.79753381  0.32028281    -0.14300
C1910       C  0.33427865  0.79229980  0.31684119    -0.07600
C1911       C  0.30855761  0.84128912  0.32219521     0.05900
C1912       C  0.29420241  0.84022833  0.34314606    -0.08700
C1913       C  0.27921109  0.85404122  0.34483015     0.00900
C1914       C  0.27832136  0.86944385  0.32513911     0.00700
C1915       C  0.29301785  0.87071175  0.30458070    -0.12300
C1916       C  0.30800753  0.85686915  0.30297361     0.01200
C1917       C  0.26536885  0.85222042  0.36753731     0.40500
C1918       C  0.32238579  0.85872291  0.28097579     0.37100
C1919       C  0.29950647  0.79982290  0.31375165     0.36900
C1920       C  0.37825396  0.82389126  0.32925900     0.37600
N1921       N  0.25439796  0.85068491  0.38587976    -0.43200
N1922       N  0.33394800  0.86026958  0.26340539    -0.43600
N1923       N  0.39401277  0.82915491  0.33339794    -0.41000
N1924       N  0.28357277  0.79461458  0.31108660    -0.42400
H1925       H  0.33038481  0.77719297  0.31377047     0.13800
H1926       H  0.34725862  0.84649888  0.32796817     0.10200
H1927       H  0.29479039  0.82855908  0.35840791     0.11300
H1928       H  0.29265378  0.88239587  0.28934223     0.17100
C1929       C  0.46992337  0.75946261  0.23046357    -0.01100
C1930       C  0.48761598  0.75315306  0.24235246     0.07500
C1931       C  0.48785183  0.74695678  0.27033675    -0.07100
C1932       C  0.47074209  0.74684474  0.28650371     0.04900
C1933       C  0.45285416  0.75285585  0.27452631    -0.14300
C1934       C  0.45276537  0.75926680  0.24651963    -0.07600
C1935       C  0.50607053  0.75303202  0.22597241     0.05900
C1936       C  0.51511715  0.77071215  0.21941532    -0.08700
C1937       C  0.53260640  0.77121394  0.20411626     0.00900
C1938       C  0.54137416  0.75365172  0.19497233     0.00700
C1939       C  0.53209031  0.73598125  0.20148742    -0.12300
C1940       C  0.51466609  0.73555665  0.21686570     0.01200
C1941       C  0.54090880  0.79000248  0.19788808     0.40500
C1942       C  0.50567008  0.71702780  0.22266114     0.37100
C1943       C  0.46902406  0.76584606  0.20166408     0.36900
C1944       C  0.47219154  0.74127450  0.31559649     0.37600
N1945       N  0.54747346  0.80511030  0.19295779    -0.43200
N1946       N  0.49844277  0.70217922  0.22727451    -0.43600
N1947       N  0.47341477  0.73694006  0.33896331    -0.41000
N1948       N  0.46840734  0.77096795  0.17857989    -0.42400
H1949       H  0.43919539  0.76388744  0.23697164     0.13800
H1950       H  0.50152047  0.74236302  0.27963657     0.10200
H1951       H  0.50846901  0.78418169  0.22635188     0.11300
H1952       H  0.53850439  0.72236751  0.19471958     0.17100
loop_ 
_geom_bond_atom_site_label_1 
_geom_bond_atom_site_label_2 
_geom_bond_distance 
_geom_bond_site_symmetry_2 
_ccdc_geom_bond_type 
O1            C4   1.266       .  A
O1           Cd6   2.471       .  S
C2           O11   1.263       .  A
C2            O7   1.268       .  A
C2         C1861   1.487       .  S
O3            C9   1.267       .  A
O3           Cd6   2.496       .  S
C4           O12   1.266       .  A
C4         C1885   1.489       .  S
C5           O10   1.266       .  A
C5            O8   1.265       .  A
C5         C1933   1.488       .  S
Cd6          O13   2.451       .  S
Cd6          O12   2.478       .  S
Cd6          O11   2.436       .  S
Cd6           O7   2.480       .  S
Cd6          O10   2.482       .  S
Cd6           O8   2.476       .  S
C9           O13   1.263       .  A
C9         C1909   1.492       .  S
O14          C17   1.267       .  A
O14         Cd19   2.467       .  S
C15          O24   1.264       .  A
C15          O20   1.263       .  A
C15        C1813   1.491       .  S
O16          C22   1.264       .  A
O16         Cd19   2.469       .  S
C17          O25   1.266       .  A
C17        C1789   1.488       .  S
C18          O23   1.265       .  A
C18          O21   1.264       .  A
C18        C1837   1.487       .  S
Cd19         O26   2.472       .  S
Cd19         O25   2.455       .  S
Cd19         O24   2.487       .  S
Cd19         O20   2.480       .  S
Cd19         O23   2.475       .  S
Cd19         O21   2.447       .  S
C22          O26   1.266       .  A
C22        C1938   1.490       .  S
O27          C30   1.267       .  A
O27         Cd32   2.475       .  S
C28          O37   1.264       .  A
C28          O33   1.265       .  A
C28        C1722   1.488       .  S
O29          C35   1.265       .  A
O29         Cd32   2.466       .  S
C30          O38   1.264       .  A
C30        C1693   1.491       .  S
C31          O36   1.265       .  A
C31          O34   1.264       .  A
C31        C1765   1.488       .  S
Cd32         O39   2.452       .  S
Cd32         O38   2.453       .  S
Cd32         O37   2.467       .  S
Cd32         O33   2.466       .  S
Cd32         O36   2.472       .  S
Cd32         O34   2.456       .  S
C35          O39   1.264       .  A
C35        C1746   1.482       .  S
O40          C43   1.267       .  A
O40         Cd45   2.483       .  S
C41          O50   1.264       .  A
C41          O46   1.267       .  A
C41        C1669   1.484       .  S
O42          C48   1.267       .  A
O42         Cd45   2.467       .  S
C43          O51   1.263       .  A
C43        C1650   1.490       .  S
C44          O49   1.263       .  A
C44          O47   1.265       .  A
C44        C1770   1.486       .  S
Cd45         O52   2.434       .  S
Cd45         O51   2.440       .  S
Cd45         O50   2.430       .  S
Cd45         O46   2.479       .  S
Cd45         O49   2.462       .  S
Cd45         O47   2.469       .  S
C48          O52   1.265       .  A
C48        C1842   1.480       .  S
O53          C56   1.265       .  A
O53         Cd58   2.480       .  S
C54          O63   1.264       .  A
C54          O59   1.268       .  A
C54        C1573   1.490       .  S
O55          C61   1.266       .  A
O55         Cd58   2.481       .  S
C56          O64   1.265       .  A
C56        C1597   1.491       .  S
C57          O62   1.265       .  A
C57          O60   1.264       .  A
C57        C1626   1.487       .  S
Cd58         O65   2.433       .  S
Cd58         O64   2.464       .  S
Cd58         O63   2.443       .  S
Cd58         O59   2.481       .  S
Cd58         O62   2.480       .  S
Cd58         O60   2.448       .  S
C61          O65   1.265       .  A
C61        C1741   1.487       .  S
O66          C69   1.265       .  A
O66         Cd71   2.500       .  S
C67          O76   1.265       .  A
C67          O72   1.266       .  A
C67        C1501   1.493       .  S
O68          C74   1.266       .  A
O68         Cd71   2.505       .  S
C69          O77   1.264       .  A
C69        C1530   1.490       .  S
C70          O75   1.266       .  A
C70          O73   1.266       .  A
C70        C1621   1.490       .  S
Cd71         O78   2.459       .  S
Cd71         O77   2.456       .  S
Cd71         O76   2.460       .  S
Cd71         O72   2.485       .  S
Cd71         O75   2.472       .  S
Cd71         O73   2.473       .  S
C74          O78   1.264       .  A
C74        C1549   1.494       .  S
O79          C82   1.264       .  A
O79         Cd84   2.481       .  S
C80          O89   1.266       .  A
C80          O85   1.264       .  A
C80        C1458   1.490       .  S
O81          C87   1.268       .  A
O81         Cd84   2.491       .  S
C82          O90   1.266       .  A
C82        C1434   1.488       .  S
C83          O88   1.263       .  A
C83          O86   1.266       .  A
C83        C1477   1.497       .  S
Cd84         O91   2.470       .  S
Cd84         O90   2.468       .  S
Cd84         O89   2.482       .  S
Cd84         O85   2.459       .  S
Cd84         O88   2.482       .  S
Cd84         O86   2.498       .  S
C87          O91   1.265       .  A
C87        C1914   1.492       .  S
O92          C95   1.264       .  A
O92         Cd97   2.492       .  S
C93         O102   1.267       .  A
C93          O98   1.266       .  A
C93        C1410   1.487       .  S
O94         C100   1.268       .  A
O94         Cd97   2.492       .  S
C95         O103   1.262       .  A
C95        C1386   1.486       .  S
C96         O101   1.266       .  A
C96          O99   1.265       .  A
C96        C1482   1.493       .  S
Cd97        O104   2.451       .  S
Cd97        O103   2.451       .  S
Cd97        O102   2.464       .  S
Cd97         O98   2.474       .  S
Cd97        O101   2.488       .  S
Cd97         O99   2.473       .  S
C100        O104   1.263       .  A
C100       C1554   1.489       .  S
O105        C108   1.267       .  A
O105       Cd110   2.480       .  S
C106        O115   1.263       .  A
C106        O111   1.265       .  A
C106       C1309   1.489       .  S
O107        C113   1.264       .  A
O107       Cd110   2.463       .  S
C108        O116   1.265       .  A
C108       C1890   1.490       .  S
C109        O114   1.266       .  A
C109        O112   1.264       .  A
C109       C1333   1.484       .  S
Cd110       O117   2.473       .  S
Cd110       O116   2.457       .  S
Cd110       O115   2.455       .  S
Cd110       O111   2.478       .  S
Cd110       O114   2.483       .  S
Cd110       O112   2.437       .  S
C113        O117   1.265       .  A
C113       C1357   1.488       .  S
O118        C121   1.263       .  A
O118       Cd123   2.443       .  S
C119        O128   1.266       .  A
C119        O124   1.267       .  A
C119       C1818   1.492       .  S
O120        C126   1.264       .  A
O120       Cd123   2.446       .  S
C121        O129   1.268       .  A
C121       C1261   1.492       .  S
C122        O127   1.265       .  A
C122        O125   1.265       .  A
C122       C1362   1.487       .  S
Cd123       O130   2.494       .  S
Cd123       O129   2.495       .  S
Cd123       O128   2.459       .  S
Cd123       O124   2.484       .  S
Cd123       O127   2.473       .  S
Cd123       O125   2.467       .  S
C126        O130   1.266       .  A
C126       C1285   1.488       .  S
O131        C134   1.265       .  A
O131       Cd136   2.450       .  S
C132        O141   1.262       .  A
C132        O137   1.266       .  A
C132       C1717   1.490       .  S
O133        C139   1.267       .  A
O133       Cd136   2.474       .  S
C134        O142   1.265       .  A
C134       C1194   1.484       .  S
C135        O140   1.265       .  A
C135        O138   1.263       .  A
C135       C1213   1.489       .  S
Cd136       O143   2.449       .  S
Cd136       O142   2.480       .  S
Cd136       O141   2.458       .  S
Cd136       O137   2.496       .  S
Cd136       O140   2.482       .  S
Cd136       O138   2.455       .  S
C139        O143   1.266       .  A
C139       C1237   1.490       .  S
O144        C147   1.265       .  A
O144       Cd149   2.462       .  S
C145        O154   1.263       .  A
C145        O150   1.265       .  A
C145       C1170   1.484       .  S
O146        C152   1.265       .  A
O146       Cd149   2.475       .  S
C147        O155   1.266       .  A
C147       C1674   1.486       .  S
C148        O153   1.264       .  A
C148        O151   1.266       .  A
C148       C1242   1.486       .  S
Cd149       O156   2.448       .  S
Cd149       O155   2.469       .  S
Cd149       O154   2.440       .  S
Cd149       O150   2.467       .  S
Cd149       O153   2.451       .  S
Cd149       O151   2.472       .  S
C152        O156   1.265       .  A
C152       C1290   1.488       .  S
O157        C160   1.264       .  A
O157       Cd162   2.457       .  S
C158        O167   1.265       .  A
C158        O163   1.266       .  A
C158       C1602   1.482       .  S
O159        C165   1.266       .  A
O159       Cd162   2.461       .  S
C160        O168   1.264       .  A
C160       C1117   1.488       .  S
C161        O166   1.263       .  A
C161        O164   1.264       .  A
C161       C1146   1.483       .  S
Cd162       O169   2.451       .  S
Cd162       O168   2.485       .  S
Cd162       O167   2.461       .  S
Cd162       O163   2.459       .  S
Cd162       O166   2.461       .  S
Cd162       O164   2.452       .  S
C165        O169   1.266       .  A
C165       C1218   1.483       .  S
O170        C173   1.267       .  A
O170       Cd175   2.482       .  S
C171        O180   1.264       .  A
C171        O176   1.265       .  A
C171       C1525   1.485       .  S
O172        C178   1.266       .  A
O172       Cd175   2.485       .  S
C173        O181   1.263       .  A
C173       C1074   1.489       .  S
C174        O179   1.262       .  A
C174        O177   1.266       .  A
C174       C1141   1.479       .  S
Cd175       O182   2.431       .  S
Cd175       O181   2.439       .  S
Cd175       O180   2.453       .  S
Cd175       O176   2.479       .  S
Cd175       O179   2.427       .  S
Cd175       O177   2.464       .  S
C178        O182   1.265       .  A
C178       C1098   1.486       .  S
O183        C186   1.266       .  A
O183       Cd188   2.476       .  S
C184        O193   1.263       .  A
C184        O189   1.268       .  A
C184       C1026   1.491       .  S
O185        C191   1.265       .  A
O185       Cd188   2.472       .  S
C186        O194   1.264       .  A
C186       C1453   1.488       .  S
C187        O192   1.265       .  A
C187        O190   1.267       .  A
C187       C1045   1.486       .  S
Cd188       O195   2.455       .  S
Cd188       O194   2.469       .  S
Cd188       O193   2.449       .  S
Cd188       O189   2.484       .  S
Cd188       O192   2.461       .  S
Cd188       O190   2.458       .  S
C191        O195   1.264       .  A
C191       C1338   1.486       .  S
O196        C199   1.264       .  A
O196       Cd201   2.458       .  S
C197        O206   1.264       .  A
C197        O202   1.265       .  A
C197       C1405   1.494       .  S
O198        C204   1.263       .  A
O198       Cd201   2.469       .  S
C199        O207   1.265       .  A
C199        C997   1.485       .  S
C200        O205   1.265       .  A
C200        O203   1.266       .  A
C200       C1093   1.488       .  S
Cd201       O208   2.485       .  S
Cd201       O207   2.468       .  S
Cd201       O206   2.469       .  S
Cd201       O202   2.491       .  S
Cd201       O205   2.477       .  S
Cd201       O203   2.470       .  S
C204        O208   1.264       .  A
C204       C1050   1.490       .  S
O209        C212   1.263       .  A
O209       Cd214   2.464       .  S
C210        O219   1.266       .  A
C210        O215   1.268       .  A
C210       C1794   1.491       .  S
O211        C217   1.266       .  A
O211       Cd214   2.496       .  S
C212        O220   1.265       .  A
C212        C925   1.486       .  S
C213        O218   1.265       .  A
C213        O216   1.267       .  A
C213        C973   1.492       .  S
Cd214       O221   2.419       .  S
Cd214       O220   2.477       .  S
Cd214       O219   2.447       .  S
Cd214       O215   2.482       .  S
Cd214       O218   2.472       .  S
Cd214       O216   2.468       .  S
C217        O221   1.263       .  A
C217        C949   1.485       .  S
O222        C225   1.266       .  A
O222       Cd227   2.484       .  S
C223        O232   1.263       .  A
C223        O228   1.266       .  A
C223       C1578   1.492       .  S
O224        C230   1.264       .  A
O224       Cd227   2.460       .  S
C225        O233   1.264       .  A
C225        C877   1.489       .  S
C226        O231   1.265       .  A
C226        O229   1.267       .  A
C226        C978   1.487       .  S
Cd227       O234   2.478       .  S
Cd227       O233   2.463       .  S
Cd227       O232   2.459       .  S
Cd227       O228   2.500       .  S
Cd227       O231   2.455       .  S
Cd227       O229   2.475       .  S
C230        O234   1.265       .  A
C230        C901   1.487       .  S
O235        C238   1.266       .  A
O235       Cd240   2.479       .  S
C236        O245   1.265       .  A
C236        O241   1.265       .  A
C236        C829   1.488       .  S
O237        C243   1.267       .  A
O237       Cd240   2.470       .  S
C238        O246   1.264       .  A
C238       C1645   1.492       .  S
C239        O244   1.265       .  A
C239        O242   1.265       .  A
C239        C853   1.485       .  S
Cd240       O247   2.449       .  S
Cd240       O246   2.465       .  S
Cd240       O245   2.475       .  S
Cd240       O241   2.469       .  S
Cd240       O244   2.469       .  S
Cd240       O242   2.463       .  S
C243        O247   1.265       .  A
C243        C954   1.488       .  S
O248        C251   1.268       .  A
O248       Cd253   2.494       .  S
C249        O258   1.266       .  A
C249        O254   1.265       .  A
C249        C786   1.490       .  S
O250        C256   1.263       .  A
O250       Cd253   2.463       .  S
C251        O259   1.264       .  A
C251       C1429   1.488       .  S
C252        O257   1.264       .  A
C252        O255   1.264       .  A
C252        C858   1.487       .  S
Cd253       O260   2.493       .  S
Cd253       O259   2.437       .  S
Cd253       O258   2.466       .  S
Cd253       O254   2.467       .  S
Cd253       O257   2.476       .  S
Cd253       O255   2.465       .  S
C256        O260   1.265       .  A
C256        C805   1.491       .  S
O261        C264   1.267       .  A
O261       Cd266   2.484       .  S
C262        O271   1.266       .  A
C262        O267   1.266       .  A
C262        C709   1.494       .  S
O263        C269   1.266       .  A
O263       Cd266   2.493       .  S
C264        O272   1.264       .  A
C264       C1381   1.492       .  S
C265        O270   1.265       .  A
C265        O268   1.265       .  A
C265        C762   1.486       .  S
Cd266       O273   2.436       .  S
Cd266       O272   2.466       .  S
Cd266       O271   2.470       .  S
Cd266       O267   2.475       .  S
Cd266       O270   2.473       .  S
Cd266       O268   2.466       .  S
C269        O273   1.262       .  A
C269        C733   1.489       .  S
O274        C277   1.267       .  A
O274       Cd279   2.481       .  S
C275        O284   1.263       .  A
C275        O280   1.268       .  A
C275        C690   1.487       .  S
O276        C282   1.267       .  A
O276       Cd279   2.471       .  S
C277        O285   1.265       .  A
C277       C1698   1.489       .  S
C278        O283   1.266       .  A
C278        O281   1.264       .  A
C278        C757   1.490       .  S
Cd279       O286   2.435       .  S
Cd279       O285   2.468       .  S
Cd279       O284   2.443       .  S
Cd279       O280   2.496       .  S
Cd279       O283   2.475       .  S
Cd279       O281   2.462       .  S
C282        O286   1.264       .  A
C282        C906   1.479       .  S
O287        C290   1.265       .  A
O287       Cd292   2.450       .  S
C288        O297   1.264       .  A
C288        O293   1.267       .  A
C288       C1506   1.491       .  S
O289        C295   1.264       .  A
O289       Cd292   2.444       .  S
C290        O298   1.267       .  A
C290        C637   1.486       .  S
C291        O296   1.264       .  A
C291        O294   1.266       .  A
C291        C666   1.485       .  S
Cd292       O299   2.476       .  S
Cd292       O298   2.474       .  S
Cd292       O297   2.451       .  S
Cd292       O293   2.496       .  S
Cd292       O296   2.448       .  S
Cd292       O294   2.477       .  S
C295        O299   1.267       .  A
C295        C738   1.488       .  S
O300        C303   1.265       .  A
O300       Cd305   2.466       .  S
C301        O310   1.264       .  A
C301        O306   1.266       .  A
C301       C1866   1.487       .  S
O302        C308   1.267       .  A
O302       Cd305   2.489       .  S
C303        O311   1.265       .  A
C303        C613   1.484       .  S
C304        O309   1.267       .  A
C304        O307   1.265       .  A
C304        C661   1.489       .  S
Cd305       O312   2.439       .  S
Cd305       O311   2.444       .  S
Cd305       O310   2.446       .  S
Cd305       O306   2.467       .  S
Cd305       O309   2.460       .  S
Cd305       O307   2.463       .  S
C308        O312   1.265       .  A
C308        C810   1.490       .  S
O313        C316   1.267       .  A
O313       Cd318   2.474       .  S
C314        O323   1.263       .  A
C314        O319   1.266       .  A
C314        C930   1.490       .  S
O315        C321   1.265       .  A
O315       Cd318   2.470       .  S
C316        O324   1.266       .  A
C316       C1266   1.488       .  S
C317        O322   1.262       .  A
C317        O320   1.264       .  A
C317        C589   1.486       .  S
Cd318       O325   2.464       .  S
Cd318       O324   2.466       .  S
Cd318       O323   2.456       .  S
Cd318       O319   2.485       .  S
Cd318       O322   2.455       .  S
Cd318       O320   2.470       .  S
C321        O325   1.264       .  A
C321        C565   1.484       .  S
O326        C329   1.266       .  A
O326       Cd331   2.468       .  S
C327        O336   1.261       .  A
C327        O332   1.266       .  A
C327       C1122   1.488       .  S
O328        C334   1.265       .  A
O328       Cd331   2.475       .  S
C329        O337   1.267       .  A
C329        C882   1.490       .  S
C330        O335   1.267       .  A
C330        O333   1.265       .  A
C330        C541   1.479       .  S
Cd331       O338   2.460       .  S
Cd331       O337   2.462       .  S
Cd331       O336   2.454       .  S
Cd331       O332   2.480       .  S
Cd331       O335   2.467       .  S
Cd331       O333   2.440       .  S
C334        O338   1.262       .  A
C334        C594   1.484       .  S
O339        C342   1.266       .  A
O339       Cd344   2.469       .  S
C340        O349   1.263       .  A
C340        O345   1.265       .  A
C340       C1165   1.486       .  S
O341        C347   1.265       .  A
O341       Cd344   2.442       .  S
C342        O350   1.265       .  A
C342        C834   1.488       .  S
C343        O348   1.266       .  A
C343        O346   1.264       .  A
C343        C517   1.482       .  S
Cd344       O351   2.460       .  S
Cd344       O350   2.471       .  S
Cd344       O349   2.451       .  S
Cd344       O345   2.466       .  S
Cd344       O348   2.467       .  S
Cd344       O346   2.454       .  S
C347        O351   1.265       .  A
C347        C570   1.486       .  S
O352        C355   1.264       .  A
O352       Cd357   2.468       .  S
C353        O362   1.265       .  A
C353        O358   1.265       .  A
C353       C1021   1.490       .  S
O354        C360   1.265       .  A
O354       Cd357   2.472       .  S
C355        O363   1.264       .  A
C355        C781   1.484       .  S
C356        O361   1.265       .  A
C356        O359   1.265       .  A
C356        C522   1.489       .  S
Cd357       O364   2.470       .  S
Cd357       O363   2.453       .  S
Cd357       O362   2.455       .  S
Cd357       O358   2.487       .  S
Cd357       O361   2.484       .  S
Cd357       O359   2.467       .  S
C360        O364   1.265       .  A
C360        C493   1.492       .  S
O365        C368   1.264       .  A
O365       Cd370   2.467       .  S
C366        O375   1.267       .  A
C366        O371   1.265       .  A
C366        C642   1.484       .  S
O367        C373   1.265       .  A
O367       Cd370   2.470       .  S
C368        O376   1.264       .  A
C368       C1069   1.489       .  S
C369        O374   1.265       .  A
C369        O372   1.265       .  A
C369        C469   1.487       .  S
Cd370       O377   2.458       .  S
Cd370       O376   2.463       .  S
Cd370       O375   2.480       .  S
Cd370       O371   2.445       .  S
Cd370       O374   2.451       .  S
Cd370       O372   2.476       .  S
C373        O377   1.263       .  A
C373        C450   1.488       .  S
O378        C381   1.267       .  A
O378       Cd383   2.457       .  S
C379        O388   1.264       .  A
C379        O384   1.266       .  A
C379       C1314   1.488       .  S
O380        C386   1.264       .  A
O380       Cd383   2.455       .  S
C381        O389   1.266       .  A
C381        C618   1.484       .  S
C382        O387   1.268       .  A
C382        O385   1.264       .  A
C382        C498   1.483       .  S
Cd383       O390   2.480       .  S
Cd383       O389   2.449       .  S
Cd383       O388   2.450       .  S
Cd383       O384   2.477       .  S
Cd383       O387   2.479       .  S
Cd383       O385   2.448       .  S
C386        O390   1.267       .  A
C386        C474   1.488       .  S
O391        C394   1.265       .  A
O391       Cd396   2.465       .  S
C392        O401   1.265       .  A
C392        O397   1.267       .  A
C392       C1002   1.487       .  S
O393        C399   1.265       .  A
O393       Cd396   2.483       .  S
C394        O402   1.266       .  A
C394        C714   1.490       .  S
C395        O400   1.265       .  A
C395        O398   1.264       .  A
C395        C421   1.488       .  S
Cd396       O403   2.448       .  S
Cd396       O402   2.478       .  S
Cd396       O401   2.431       .  S
Cd396       O397   2.475       .  S
Cd396       O400   2.466       .  S
Cd396       O398   2.456       .  S
C399        O403   1.263       .  A
C399        C445   1.485       .  S
O404        C407   1.264       .  A
O404       Cd409   2.472       .  S
C405        O414   1.265       .  A
C405        O410   1.264       .  A
C405       C1189   1.490       .  S
O406        C412   1.263       .  A
O406       Cd409   2.477       .  S
C407        O415   1.266       .  A
C407        C685   1.493       .  S
C408        O413   1.269       .  A
C408        O411   1.265       .  A
C408        C426   1.485       .  S
Cd409       O416   2.451       .  S
Cd409       O415   2.485       .  S
Cd409       O414   2.475       .  S
Cd409       O410   2.475       .  S
Cd409       O413   2.466       .  S
Cd409       O411   2.437       .  S
C412        O416   1.263       .  A
C412        C546   1.485       .  S
C417        C418   1.408       .  A
C417        C422   1.400       .  A
C417        C431   1.444       .  S
C418        C423   1.481   1_455  S
C418        C419   1.400       .  A
C419        C420   1.400       .  A
C419        H438   1.085   1_455  S
C420        C421   1.418       .  A
C420        C432   1.444       .  S
C421        C422   1.408       .  A
C422        H437   1.084       .  S
C423        C424   1.400       .  A
C423        C428   1.408       .  A
C424        C425   1.399       .  A
C424        H439   1.085       .  S
C425        C426   1.418       .  A
C425        C429   1.445       .  S
C426        C427   1.406       .  A
C427        C428   1.400       .  A
C427        H440   1.084       .  S
C428        C430   1.444       .  S
C429        N433   1.157       .  T
C430        N434   1.157   1_655  T
C431        N436   1.157       .  T
C432        N435   1.157       .  T
C441        C442   1.407       .  A
C441        C446   1.398       .  A
C441        C455   1.444       .  S
C442        C447   1.479       .  S
C442        C443   1.401       .  A
C443        C444   1.402       .  A
C443        H462   1.085       .  S
C444        C445   1.417       .  A
C444        C456   1.444       .  S
C445        C446   1.407       .  A
C446        H461   1.084       .  S
C447        C448   1.399       .  A
C447        C452   1.407       .  A
C448        C449   1.400       .  A
C448        H463   1.085       .  S
C449        C450   1.419       .  A
C449        C453   1.444       .  S
C450        C451   1.409       .  A
C451        C452   1.400       .  A
C451        H464   1.084       .  S
C452        C454   1.444       .  S
C453        N457   1.157       .  T
C454        N458   1.157       .  T
C455        N460   1.157       .  T
C456        N459   1.157       .  T
C465        C466   1.411       .  A
C465        C470   1.398       .  A
C465        C479   1.444       .  S
C466        C471   1.489       .  S
C466        C467   1.404       .  A
C467        C468   1.403       .  A
C467        H486   1.085       .  S
C468        C469   1.416       .  A
C468        C480   1.444       .  S
C469        C470   1.406       .  A
C470        H485   1.085       .  S
C471        C472   1.403       .  A
C471        C476   1.411       .  A
C472        C473   1.401       .  A
C472        H487   1.085       .  S
C473        C474   1.417       .  A
C473        C477   1.444       .  S
C474        C475   1.406       .  A
C475        C476   1.401       .  A
C475        H488   1.084       .  S
C476        C478   1.444       .  S
C477        N481   1.157       .  T
C478        N482   1.157       .  T
C479        N484   1.157       .  T
C480        N483   1.157       .  T
C489        C490   1.409       .  A
C489        C494   1.401       .  A
C489        C503   1.444       .  S
C490        C495   1.486       .  S
C490        C491   1.401       .  A
C491        C492   1.402       .  A
C491        H510   1.085       .  S
C492        C493   1.419       .  A
C492        C504   1.444       .  S
C493        C494   1.408       .  A
C494        H509   1.084       .  S
C495        C496   1.402       .  A
C495        C500   1.410       .  A
C496        C497   1.402       .  A
C496        H511   1.085       .  S
C497        C498   1.416       .  A
C497        C501   1.445       .  S
C498        C499   1.404       .  A
C499        C500   1.400       .  A
C499        H512   1.085       .  S
C500        C502   1.444       .  S
C501        N505   1.158       .  T
C502        N506   1.157       .  T
C503        N508   1.157       .  T
C504        N507   1.157       .  T
C513        C514   1.408       .  A
C513        C518   1.401       .  A
C513        C527   1.444       .  S
C514        C519   1.482   1_655  S
C514        C515   1.402       .  A
C515        C516   1.400       .  A
C515        H534   1.085       .  S
C516        C517   1.414       .  A
C516        C528   1.444       .  S
C517        C518   1.407       .  A
C518        H533   1.085       .  S
C519        C520   1.401       .  A
C519        C524   1.407       .  A
C520        C521   1.403       .  A
C520        H535   1.085       .  S
C521        C522   1.418       .  A
C521        C525   1.444       .  S
C522        C523   1.408       .  A
C523        C524   1.399       .  A
C523        H536   1.084       .  S
C524        C526   1.444   1_455  S
C525        N529   1.157       .  T
C526        N530   1.157       .  T
C527        N532   1.157       .  T
C528        N531   1.157       .  T
C537        C538   1.409       .  A
C537        C542   1.400       .  A
C537        C551   1.444       .  S
C538        C543   1.483       .  S
C538        C539   1.402       .  A
C539        C540   1.399       .  A
C539        H558   1.085       .  S
C540        C541   1.414       .  A
C540        C552   1.445       .  S
C541        C542   1.405       .  A
C542        H557   1.085       .  S
C543        C544   1.402       .  A
C543        C548   1.409       .  A
C544        C545   1.402       .  A
C544        H559   1.085       .  S
C545        C546   1.417       .  A
C545        C549   1.444       .  S
C546        C547   1.406       .  A
C547        C548   1.397       .  A
C547        H560   1.084       .  S
C548        C550   1.444       .  S
C549        N553   1.157       .  T
C550        N554   1.157       .  T
C551        N556   1.157       .  T
C552        N555   1.157       .  T
C561        C562   1.408       .  A
C561        C566   1.399       .  A
C561        C575   1.445       .  S
C562        C567   1.480       .  S
C562        C563   1.400       .  A
C563        C564   1.401       .  A
C563        H582   1.085       .  S
C564        C565   1.416       .  A
C564        C576   1.444       .  S
C565        C566   1.406       .  A
C566        H581   1.085       .  S
C567        C568   1.401       .  A
C567        C572   1.408       .  A
C568        C569   1.402       .  A
C568        H583   1.085       .  S
C569        C570   1.418       .  A
C569        C573   1.444       .  S
C570        C571   1.407       .  A
C571        C572   1.396       .  A
C571        H584   1.084       .  S
C572        C574   1.445       .  S
C573        N577   1.157       .  T
C574        N578   1.157       .  T
C575        N580   1.157       .  T
C576        N579   1.157       .  T
C585        C586   1.408       .  A
C585        C590   1.399       .  A
C585        C599   1.444       .  S
C586        C591   1.480       .  S
C586        C587   1.400       .  A
C587        C588   1.400       .  A
C587        H606   1.085       .  S
C588        C589   1.419       .  A
C588        C600   1.444       .  S
C589        C590   1.408       .  A
C590        H605   1.084       .  S
C591        C592   1.400       .  A
C591        C596   1.408       .  A
C592        C593   1.400       .  A
C592        H607   1.085       .  S
C593        C594   1.418       .  A
C593        C597   1.444       .  S
C594        C595   1.406       .  A
C595        C596   1.399       .  A
C595        H608   1.085       .  S
C596        C598   1.444       .  S
C597        N601   1.157       .  T
C598        N602   1.157       .  T
C599        N604   1.157       .  T
C600        N603   1.157       .  T
C609        C610   1.408   1_554  A
C609        C614   1.397       .  A
C609        C623   1.444       .  S
C610        C615   1.483       .  S
C610        C611   1.403   1_556  A
C611        C612   1.402       .  A
C611        H630   1.085   1_554  S
C612        C613   1.418       .  A
C612        C624   1.445       .  S
C613        C614   1.406       .  A
C614        H629   1.085       .  S
C615        C616   1.401       .  A
C615        C620   1.408       .  A
C616        C617   1.398       .  A
C616        H631   1.085       .  S
C617        C618   1.417       .  A
C617        C621   1.445       .  S
C618        C619   1.407       .  A
C619        C620   1.400       .  A
C619        H632   1.084       .  S
C620        C622   1.444       .  S
C621        N625   1.157       .  T
C622        N626   1.157       .  T
C623        N628   1.157   1_554  T
C624        N627   1.158       .  T
C633        C634   1.410       .  A
C633        C638   1.400       .  A
C633        C647   1.444       .  S
C634        C639   1.485       .  S
C634        C635   1.403       .  A
C635        C636   1.401       .  A
C635        H654   1.085       .  S
C636        C637   1.415       .  A
C636        C648   1.444       .  S
C637        C638   1.407       .  A
C638        H653   1.085       .  S
C639        C640   1.401       .  A
C639        C644   1.411       .  A
C640        C641   1.398       .  A
C640        H655   1.085       .  S
C641        C642   1.415       .  A
C641        C645   1.445       .  S
C642        C643   1.406       .  A
C643        C644   1.403       .  A
C643        H656   1.084       .  S
C644        C646   1.444       .  S
C645        N649   1.157       .  T
C646        N650   1.157       .  T
C647        N652   1.157       .  T
C648        N651   1.157       .  T
C657        C658   1.408       .  A
C657        C662   1.399       .  A
C657        C671   1.444       .  S
C658        C663   1.481       .  S
C658        C659   1.400       .  A
C659        C660   1.401       .  A
C659        H678   1.085       .  S
C660        C661   1.419       .  A
C660        C672   1.444       .  S
C661        C662   1.408       .  A
C662        H677   1.084       .  S
C663        C664   1.399       .  A
C663        C668   1.409       .  A
C664        C665   1.398       .  A
C664        H679   1.085       .  S
C665        C666   1.417       .  A
C665        C669   1.444       .  S
C666        C667   1.408       .  A
C667        C668   1.402       .  A
C667        H680   1.084       .  S
C668        C670   1.444       .  S
C669        N673   1.157       .  T
C670        N674   1.157       .  T
C671        N676   1.157       .  T
C672        N675   1.157       .  T
C681        C682   1.411       .  A
C681        C686   1.403       .  A
C681        C695   1.444       .  S
C682        C687   1.491   1_556  S
C682        C683   1.402       .  A
C683        C684   1.402       .  A
C683        H702   1.085       .  S
C684        C685   1.418       .  A
C684        C696   1.444       .  S
C685        C686   1.409       .  A
C686        H701   1.084       .  S
C687        C688   1.403       .  A
C687        C692   1.412       .  A
C688        C689   1.401       .  A
C688        H703   1.085       .  S
C689        C690   1.417       .  A
C689        C693   1.445       .  S
C690        C691   1.405       .  A
C691        C692   1.403       .  A
C691        H704   1.084       .  S
C692        C694   1.444       .  S
C693        N697   1.158       .  T
C694        N698   1.157       .  T
C695        N700   1.157       .  T
C696        N699   1.157       .  T
C705        C706   1.410       .  A
C705        C710   1.401       .  A
C705        C719   1.444       .  S
C706        C711   1.491       .  S
C706        C707   1.403       .  A
C707        C708   1.404       .  A
C707        H726   1.085       .  S
C708        C709   1.418       .  A
C708        C720   1.444       .  S
C709        C710   1.408       .  A
C710        H725   1.084       .  S
C711        C712   1.404       .  A
C711        C716   1.411       .  A
C712        C713   1.403       .  A
C712        H727   1.085       .  S
C713        C714   1.417       .  A
C713        C717   1.444       .  S
C714        C715   1.407       .  A
C715        C716   1.401       .  A
C715        H728   1.085       .  S
C716        C718   1.444       .  S
C717        N721   1.157       .  T
C718        N722   1.157       .  T
C719        N724   1.157       .  T
C720        N723   1.157       .  T
C729        C730   1.410       .  A
C729        C734   1.403       .  A
C729        C743   1.444       .  S
C730        C735   1.486       .  S
C730        C731   1.400       .  A
C731        C732   1.397       .  A
C731        H750   1.085       .  S
C732        C733   1.418       .  A
C732        C744   1.444       .  S
C733        C734   1.409       .  A
C734        H749   1.084       .  S
C735        C736   1.401       .  A
C735        C740   1.411       .  A
C736        C737   1.398       .  A
C736        H751   1.085       .  S
C737        C738   1.418       .  A
C737        C741   1.444       .  S
C738        C739   1.408       .  A
C739        C740   1.402       .  A
C739        H752   1.084       .  S
C740        C742   1.444       .  S
C741        N745   1.157       .  T
C742        N746   1.157       .  T
C743        N748   1.157       .  T
C744        N747   1.157       .  T
C753        C754   1.408       .  A
C753        C758   1.401       .  A
C753        C767   1.444       .  S
C754        C759   1.483   1_655  S
C754        C755   1.400       .  A
C755        C756   1.400       .  A
C755        H774   1.085   1_655  S
C756        C757   1.418       .  A
C756        C768   1.444       .  S
C757        C758   1.409       .  A
C758        H773   1.084       .  S
C759        C760   1.402       .  A
C759        C764   1.408       .  A
C760        C761   1.401       .  A
C760        H775   1.085   1_455  S
C761        C762   1.416       .  A
C761        C765   1.444       .  S
C762        C763   1.407       .  A
C763        C764   1.401       .  A
C763        H776   1.085       .  S
C764        C766   1.444       .  S
C765        N769   1.157       .  T
C766        N770   1.157       .  T
C767        N772   1.157       .  T
C768        N771   1.157       .  T
C777        C778   1.409       .  A
C777        C782   1.397       .  A
C777        C791   1.445       .  S
C778        C783   1.482   1_556  S
C778        C779   1.401       .  A
C779        C780   1.404       .  A
C779        H798   1.084       .  S
C780        C781   1.417       .  A
C780        C792   1.444       .  S
C781        C782   1.405       .  A
C782        H797   1.084       .  S
C783        C784   1.400       .  A
C783        C788   1.408       .  A
C784        C785   1.402       .  A
C784        H799   1.085       .  S
C785        C786   1.418       .  A
C785        C789   1.444       .  S
C786        C787   1.408       .  A
C787        C788   1.400       .  A
C787        H800   1.084       .  S
C788        C790   1.444       .  S
C789        N793   1.157       .  T
C790        N794   1.157       .  T
C791        N796   1.157       .  T
C792        N795   1.157       .  T
C801        C802   1.408       .  A
C801        C806   1.398       .  A
C801        C815   1.445       .  S
C802        C807   1.484       .  S
C802        C803   1.401       .  A
C803        C804   1.405       .  A
C803        H822   1.085       .  S
C804        C805   1.419       .  A
C804        C816   1.444       .  S
C805        C806   1.408       .  A
C806        H821   1.084       .  S
C807        C808   1.402       .  A
C807        C812   1.407       .  A
C808        C809   1.405       .  A
C808        H823   1.083       .  S
C809        C810   1.418       .  A
C809        C813   1.444       .  S
C810        C811   1.408       .  A
C811        C812   1.397       .  A
C811        H824   1.084       .  S
C812        C814   1.445       .  S
C813        N817   1.157       .  T
C814        N818   1.157       .  T
C815        N820   1.157       .  T
C816        N819   1.157       .  T
C825        C826   1.410       .  A
C825        C830   1.402       .  A
C825        C839   1.444       .  S
C826        C831   1.487       .  S
C826        C827   1.403       .  A
C827        C828   1.402       .  A
C827        H846   1.085       .  S
C828        C829   1.416       .  A
C828        C840   1.444       .  S
C829        C830   1.407       .  A
C830        H845   1.084       .  S
C831        C832   1.403       .  A
C831        C836   1.410       .  A
C832        C833   1.404       .  A
C832        H847   1.085       .  S
C833        C834   1.417       .  A
C833        C837   1.444       .  S
C834        C835   1.406       .  A
C835        C836   1.399       .  A
C835        H848   1.085       .  S
C836        C838   1.444       .  S
C837        N841   1.157       .  T
C838        N842   1.157       .  T
C839        N844   1.157       .  T
C840        N843   1.157       .  T
C849        C850   1.410       .  A
C849        C854   1.400       .  A
C849        C863   1.444       .  S
C850        C855   1.485   1_655  S
C850        C851   1.402       .  A
C851        C852   1.401       .  A
C851        H870   1.085       .  S
C852        C853   1.416       .  A
C852        C864   1.444       .  S
C853        C854   1.406       .  A
C854        H869   1.085       .  S
C855        C856   1.401       .  A
C855        C860   1.410       .  A
C856        C857   1.401       .  A
C856        H871   1.085       .  S
C857        C858   1.417       .  A
C857        C861   1.444       .  S
C858        C859   1.407       .  A
C859        C860   1.400       .  A
C859        H872   1.084       .  S
C860        C862   1.444   1_455  S
C861        N865   1.157       .  T
C862        N866   1.157       .  T
C863        N868   1.157   1_655  T
C864        N867   1.157       .  T
C873        C874   1.412   1_554  A
C873        C878   1.402       .  A
C873        C887   1.444   1_554  S
C874        C879   1.491       .  S
C874        C875   1.403   1_556  A
C875        C876   1.402       .  A
C875        H894   1.085       .  S
C876        C877   1.416       .  A
C876        C888   1.444       .  S
C877        C878   1.406       .  A
C878        H893   1.085       .  S
C879        C880   1.404       .  A
C879        C884   1.411       .  A
C880        C881   1.403       .  A
C880        H895   1.084       .  S
C881        C882   1.417       .  A
C881        C885   1.444       .  S
C882        C883   1.407       .  A
C883        C884   1.400       .  A
C883        H896   1.084       .  S
C884        C886   1.444       .  S
C885        N889   1.157       .  T
C886        N890   1.157       .  T
C887        N892   1.157       .  T
C888        N891   1.157       .  T
C897        C898   1.408       .  A
C897        C902   1.401       .  A
C897        C911   1.444       .  S
C898        C903   1.481       .  S
C898        C899   1.400       .  A
C899        C900   1.400       .  A
C899        H918   1.085       .  S
C900        C901   1.417       .  A
C900        C912   1.444       .  S
C901        C902   1.408       .  A
C902        H917   1.084       .  S
C903        C904   1.401       .  A
C903        C908   1.409       .  A
C904        C905   1.399       .  A
C904        H919   1.085       .  S
C905        C906   1.414       .  A
C905        C909   1.445       .  S
C906        C907   1.405       .  A
C907        C908   1.401       .  A
C907        H920   1.085       .  S
C908        C910   1.443       .  S
C909        N913   1.158       .  T
C910        N914   1.157       .  T
C911        N916   1.157       .  T
C912        N915   1.157       .  T
C921        C922   1.411       .  A
C921        C926   1.402       .  A
C921        C935   1.444       .  S
C922        C927   1.489       .  S
C922        C923   1.403       .  A
C923        C924   1.400       .  A
C923        H942   1.085       .  S
C924        C925   1.417       .  A
C924        C936   1.445       .  S
C925        C926   1.406       .  A
C926        H941   1.085       .  S
C927        C928   1.402       .  A
C927        C932   1.410       .  A
C928        C929   1.401       .  A
C928        H943   1.085       .  S
C929        C930   1.418       .  A
C929        C933   1.444       .  S
C930        C931   1.407       .  A
C931        C932   1.402       .  A
C931        H944   1.084       .  S
C932        C934   1.444       .  S
C933        N937   1.157       .  T
C934        N938   1.157       .  T
C935        N940   1.157       .  T
C936        N939   1.157       .  T
C945        C946   1.408       .  A
C945        C950   1.395       .  A
C945        C959   1.444       .  S
C946        C951   1.483       .  S
C946        C947   1.403       .  A
C947        C948   1.403       .  A
C947        H966   1.085       .  S
C948        C949   1.417       .  A
C948        C960   1.444       .  S
C949        C950   1.407       .  A
C950        H965   1.085       .  S
C951        C952   1.401       .  A
C951        C956   1.408       .  A
C952        C953   1.399       .  A
C952        H967   1.085       .  S
C953        C954   1.418       .  A
C953        C957   1.444       .  S
C954        C955   1.408       .  A
C955        C956   1.401       .  A
C955        H968   1.084       .  S
C956        C958   1.444       .  S
C957        N961   1.157       .  T
C958        N962   1.157       .  T
C959        N964   1.157       .  T
C960        N963   1.157       .  T
C969        C970   1.409       .  A
C969        C974   1.400       .  A
C969        C983   1.444       .  S
C970        C975   1.487       .  S
C970        C971   1.402       .  A
C971        C972   1.403       .  A
C971        H990   1.085       .  S
C972        C973   1.419       .  A
C972        C984   1.444       .  S
C973        C974   1.408       .  A
C974        H989   1.084       .  S
C975        C976   1.403       .  A
C975        C980   1.409       .  A
C976        C977   1.402       .  A
C976        H991   1.085       .  S
C977        C978   1.416       .  A
C977        C981   1.444       .  S
C978        C979   1.407       .  A
C979        C980   1.400       .  A
C979        H992   1.084       .  S
C980        C982   1.444       .  S
C981        N985   1.157       .  T
C982        N986   1.157       .  T
C983        N988   1.157       .  T
C984        N987   1.157       .  T
C993        C994   1.411       .  A
C993        C998   1.399       .  A
C993       C1007   1.445       .  S
C994        C999   1.486       .  S
C994        C995   1.402       .  A
C995        C996   1.401       .  A
C995       H1014   1.085       .  S
C996        C997   1.416       .  A
C996       C1008   1.444       .  S
C997        C998   1.406       .  A
C998       H1013   1.085       .  S
C999       C1000   1.403       .  A
C999       C1004   1.409       .  A
C1000      C1001   1.401       .  A
C1000      H1015   1.085       .  S
C1001      C1002   1.417       .  A
C1001      C1005   1.444       .  S
C1002      C1003   1.407       .  A
C1003      C1004   1.397       .  A
C1003      H1016   1.084       .  S
C1004      C1006   1.444       .  S
C1005      N1009   1.157       .  T
C1006      N1010   1.157       .  T
C1007      N1012   1.157       .  T
C1008      N1011   1.157       .  T
C1017      C1018   1.413       .  A
C1017      C1022   1.404       .  A
C1017      C1031   1.445       .  S
C1018      C1023   1.492       .  S
C1018      C1019   1.403       .  A
C1019      C1020   1.399       .  A
C1019      H1038   1.085       .  S
C1020      C1021   1.416       .  A
C1020      C1032   1.444       .  S
C1021      C1022   1.408       .  A
C1022      H1037   1.084       .  S
C1023      C1024   1.403       .  A
C1023      C1028   1.412       .  A
C1024      C1025   1.401       .  A
C1024      H1039   1.085       .  S
C1025      C1026   1.419       .  A
C1025      C1029   1.444       .  S
C1026      C1027   1.407       .  A
C1027      C1028   1.402       .  A
C1027      H1040   1.084       .  S
C1028      C1030   1.444       .  S
C1029      N1033   1.157       .  T
C1030      N1034   1.157       .  T
C1031      N1036   1.157       .  T
C1032      N1035   1.157       .  T
C1041      C1042   1.409       .  A
C1041      C1046   1.400   1_545  A
C1041      C1055   1.444       .  S
C1042      C1047   1.486       .  S
C1042      C1043   1.402   1_545  A
C1043      C1044   1.402       .  A
C1043      H1062   1.085       .  S
C1044      C1045   1.417       .  A
C1044      C1056   1.444       .  S
C1045      C1046   1.406       .  A
C1046      H1061   1.085       .  S
C1047      C1048   1.402       .  A
C1047      C1052   1.409       .  A
C1048      C1049   1.402       .  A
C1048      H1063   1.085       .  S
C1049      C1050   1.418       .  A
C1049      C1053   1.444       .  S
C1050      C1051   1.408       .  A
C1051      C1052   1.400       .  A
C1051      H1064   1.084       .  S
C1052      C1054   1.444       .  S
C1053      N1057   1.157       .  T
C1054      N1058   1.157       .  T
C1055      N1060   1.157       .  T
C1056      N1059   1.157       .  T
C1065      C1066   1.407       .  A
C1065      C1070   1.399       .  A
C1065      C1079   1.445       .  S
C1066      C1071   1.480       .  S
C1066      C1067   1.400       .  A
C1067      C1068   1.401       .  A
C1067      H1086   1.085       .  S
C1068      C1069   1.418       .  A
C1068      C1080   1.444       .  S
C1069      C1070   1.408       .  A
C1070      H1085   1.084       .  S
C1071      C1072   1.398       .  A
C1071      C1076   1.407       .  A
C1072      C1073   1.399       .  A
C1072      H1087   1.085       .  S
C1073      C1074   1.420       .  A
C1073      C1077   1.444       .  S
C1074      C1075   1.408       .  A
C1075      C1076   1.401       .  A
C1075      H1088   1.084       .  S
C1076      C1078   1.444       .  S
C1077      N1081   1.157       .  T
C1078      N1082   1.157       .  T
C1079      N1084   1.157       .  T
C1080      N1083   1.157       .  T
C1089      C1090   1.408       .  A
C1089      C1094   1.399       .  A
C1089      C1103   1.444       .  S
C1090      C1095   1.483       .  S
C1090      C1091   1.401       .  A
C1091      C1092   1.404       .  A
C1091      H1110   1.085       .  S
C1092      C1093   1.418       .  A
C1092      C1104   1.444       .  S
C1093      C1094   1.406       .  A
C1094      H1109   1.084       .  S
C1095      C1096   1.400       .  A
C1095      C1100   1.409       .  A
C1096      C1097   1.397       .  A
C1096      H1111   1.085       .  S
C1097      C1098   1.416       .  A
C1097      C1101   1.444       .  S
C1098      C1099   1.409       .  A
C1099      C1100   1.405       .  A
C1099      H1112   1.084       .  S
C1100      C1102   1.444       .  S
C1101      N1105   1.157       .  T
C1102      N1106   1.157       .  T
C1103      N1108   1.157       .  T
C1104      N1107   1.157       .  T
C1113      C1114   1.408       .  A
C1113      C1118   1.398       .  A
C1113      C1127   1.444       .  S
C1114      C1119   1.481       .  S
C1114      C1115   1.401       .  A
C1115      C1116   1.402       .  A
C1115      H1134   1.085       .  S
C1116      C1117   1.418       .  A
C1116      C1128   1.444       .  S
C1117      C1118   1.407       .  A
C1118      H1133   1.084       .  S
C1119      C1120   1.400       .  A
C1119      C1124   1.407       .  A
C1120      C1121   1.400       .  A
C1120      H1135   1.085       .  S
C1121      C1122   1.419       .  A
C1121      C1125   1.445       .  S
C1122      C1123   1.408       .  A
C1123      C1124   1.400       .  A
C1123      H1136   1.084       .  S
C1124      C1126   1.443       .  S
C1125      N1129   1.158       .  T
C1126      N1130   1.157       .  T
C1127      N1132   1.157       .  T
C1128      N1131   1.157       .  T
C1137      C1138   1.407       .  A
C1137      C1142   1.397       .  A
C1137      C1151   1.445       .  S
C1138      C1143   1.473       .  S
C1138      C1139   1.398       .  A
C1139      C1140   1.398       .  A
C1139      H1158   1.085       .  S
C1140      C1141   1.417       .  A
C1140      C1152   1.444       .  S
C1141      C1142   1.405       .  A
C1142      H1157   1.084       .  S
C1143      C1144   1.398       .  A
C1143      C1148   1.406       .  A
C1144      C1145   1.399       .  A
C1144      H1159   1.085       .  S
C1145      C1146   1.418       .  A
C1145      C1149   1.444       .  S
C1146      C1147   1.407       .  A
C1147      C1148   1.396       .  A
C1147      H1160   1.084       .  S
C1148      C1150   1.445       .  S
C1149      N1153   1.157       .  T
C1150      N1154   1.157       .  T
C1151      N1156   1.157       .  T
C1152      N1155   1.157       .  T
C1161      C1162   1.406       .  A
C1161      C1166   1.398       .  A
C1161      C1175   1.445       .  S
C1162      C1167   1.474       .  S
C1162      C1163   1.398       .  A
C1163      C1164   1.399       .  A
C1163      H1182   1.085       .  S
C1164      C1165   1.417       .  A
C1164      C1176   1.443       .  S
C1165      C1166   1.409       .  A
C1166      H1181   1.084       .  S
C1167      C1168   1.399       .  A
C1167      C1172   1.405       .  A
C1168      C1169   1.399       .  A
C1168      H1183   1.085       .  S
C1169      C1170   1.417       .  A
C1169      C1173   1.444       .  S
C1170      C1171   1.408       .  A
C1171      C1172   1.397       .  A
C1171      H1184   1.084       .  S
C1172      C1174   1.444       .  S
C1173      N1177   1.157       .  T
C1174      N1178   1.157       .  T
C1175      N1180   1.157       .  T
C1176      N1179   1.157       .  T
C1185      C1186   1.410       .  A
C1185      C1190   1.402       .  A
C1185      C1199   1.445       .  S
C1186      C1191   1.486       .  S
C1186      C1187   1.401       .  A
C1187      C1188   1.402       .  A
C1187      H1206   1.085       .  S
C1188      C1189   1.417       .  A
C1188      C1200   1.443       .  S
C1189      C1190   1.408       .  A
C1190      H1205   1.084       .  S
C1191      C1192   1.404       .  A
C1191      C1196   1.409       .  A
C1192      C1193   1.405       .  A
C1192      H1207   1.085       .  S
C1193      C1194   1.416       .  A
C1193      C1197   1.444       .  S
C1194      C1195   1.405       .  A
C1195      C1196   1.397       .  A
C1195      H1208   1.085       .  S
C1196      C1198   1.444       .  S
C1197      N1201   1.158       .  T
C1198      N1202   1.157       .  T
C1199      N1204   1.157       .  T
C1200      N1203   1.157       .  T
C1209      C1210   1.409       .  A
C1209      C1214   1.398       .  A
C1209      C1223   1.445       .  S
C1210      C1215   1.486       .  S
C1210      C1211   1.402       .  A
C1211      C1212   1.403       .  A
C1211      H1230   1.085       .  S
C1212      C1213   1.417       .  A
C1212      C1224   1.443       .  S
C1213      C1214   1.408       .  A
C1214      H1229   1.085       .  S
C1215      C1216   1.403       .  A
C1215      C1220   1.410       .  A
C1216      C1217   1.400       .  A
C1216      H1231   1.085       .  S
C1217      C1218   1.415       .  A
C1217      C1221   1.445       .  S
C1218      C1219   1.406       .  A
C1219      C1220   1.400       .  A
C1219      H1232   1.084       .  S
C1220      C1222   1.444       .  S
C1221      N1225   1.157       .  T
C1222      N1226   1.157       .  T
C1223      N1228   1.157       .  T
C1224      N1227   1.157       .  T
C1233      C1234   1.407       .  A
C1233      C1238   1.402       .  A
C1233      C1247   1.444       .  S
C1234      C1239   1.481       .  S
C1234      C1235   1.399       .  A
C1235      C1236   1.399       .  A
C1235      H1254   1.085       .  S
C1236      C1237   1.418       .  A
C1236      C1248   1.444       .  S
C1237      C1238   1.410       .  A
C1238      H1253   1.084       .  S
C1239      C1240   1.400   1_545  A
C1239      C1244   1.408       .  A
C1240      C1241   1.400       .  A
C1240      H1255   1.085   1_565  S
C1241      C1242   1.418       .  A
C1241      C1245   1.444       .  S
C1242      C1243   1.407       .  A
C1243      C1244   1.401   1_565  A
C1243      H1256   1.084       .  S
C1244      C1246   1.444       .  S
C1245      N1249   1.157       .  T
C1246      N1250   1.157       .  T
C1247      N1252   1.157       .  T
C1248      N1251   1.157       .  T
C1257      C1258   1.411       .  A
C1257      C1262   1.403       .  A
C1257      C1271   1.444       .  S
C1258      C1263   1.491       .  S
C1258      C1259   1.402       .  A
C1259      C1260   1.401       .  A
C1259      H1278   1.085       .  S
C1260      C1261   1.420       .  A
C1260      C1272   1.444       .  S
C1261      C1262   1.407       .  A
C1262      H1277   1.084       .  S
C1263      C1264   1.404       .  A
C1263      C1268   1.412       .  A
C1264      C1265   1.403       .  A
C1264      H1279   1.085       .  S
C1265      C1266   1.416       .  A
C1265      C1269   1.444       .  S
C1266      C1267   1.406       .  A
C1267      C1268   1.401       .  A
C1267      H1280   1.085       .  S
C1268      C1270   1.445       .  S
C1269      N1273   1.157       .  T
C1270      N1274   1.157       .  T
C1271      N1276   1.157       .  T
C1272      N1275   1.157       .  T
C1281      C1282   1.410       .  A
C1281      C1286   1.398       .  A
C1281      C1295   1.445       .  S
C1282      C1287   1.487       .  S
C1282      C1283   1.403       .  A
C1283      C1284   1.404       .  A
C1283      H1302   1.085       .  S
C1284      C1285   1.417       .  A
C1284      C1296   1.443       .  S
C1285      C1286   1.406       .  A
C1286      H1301   1.085       .  S
C1287      C1288   1.403       .  A
C1287      C1292   1.410       .  A
C1288      C1289   1.404       .  A
C1288      H1303   1.085       .  S
C1289      C1290   1.418       .  A
C1289      C1293   1.444       .  S
C1290      C1291   1.406       .  A
C1291      C1292   1.397       .  A
C1291      H1304   1.084       .  S
C1292      C1294   1.444       .  S
C1293      N1297   1.158       .  T
C1294      N1298   1.157       .  T
C1295      N1300   1.157       .  T
C1296      N1299   1.157       .  T
C1305      C1306   1.409       .  A
C1305      C1310   1.401       .  A
C1305      C1319   1.444       .  S
C1306      C1311   1.482       .  S
C1306      C1307   1.400       .  A
C1307      C1308   1.399       .  A
C1307      H1326   1.085       .  S
C1308      C1309   1.419       .  A
C1308      C1320   1.444       .  S
C1309      C1310   1.408       .  A
C1310      H1325   1.084       .  S
C1311      C1312   1.401       .  A
C1311      C1316   1.408       .  A
C1312      C1313   1.401       .  A
C1312      H1327   1.085       .  S
C1313      C1314   1.417       .  A
C1313      C1317   1.444       .  S
C1314      C1315   1.408       .  A
C1315      C1316   1.399       .  A
C1315      H1328   1.084       .  S
C1316      C1318   1.444       .  S
C1317      N1321   1.157       .  T
C1318      N1322   1.157       .  T
C1319      N1324   1.157       .  T
C1320      N1323   1.157       .  T
C1329      C1330   1.411       .  A
C1329      C1334   1.403       .  A
C1329      C1343   1.444       .  S
C1330      C1335   1.486       .  S
C1330      C1331   1.401       .  A
C1331      C1332   1.396       .  A
C1331      H1350   1.085       .  S
C1332      C1333   1.415       .  A
C1332      C1344   1.444       .  S
C1333      C1334   1.407       .  A
C1334      H1349   1.084       .  S
C1335      C1336   1.403       .  A
C1335      C1340   1.411       .  A
C1336      C1337   1.403       .  A
C1336      H1351   1.085       .  S
C1337      C1338   1.417       .  A
C1337      C1341   1.444       .  S
C1338      C1339   1.405       .  A
C1339      C1340   1.397       .  A
C1339      H1352   1.085       .  S
C1340      C1342   1.445       .  S
C1341      N1345   1.157       .  T
C1342      N1346   1.157       .  T
C1343      N1348   1.157       .  T
C1344      N1347   1.157       .  T
C1353      C1354   1.409       .  A
C1353      C1358   1.400       .  A
C1353      C1367   1.444       .  S
C1354      C1359   1.486       .  S
C1354      C1355   1.402       .  A
C1355      C1356   1.402       .  A
C1355      H1374   1.085       .  S
C1356      C1357   1.417       .  A
C1356      C1368   1.444       .  S
C1357      C1358   1.407       .  A
C1358      H1373   1.084       .  S
C1359      C1360   1.402       .  A
C1359      C1364   1.410       .  A
C1360      C1361   1.400       .  A
C1360      H1375   1.085       .  S
C1361      C1362   1.416       .  A
C1361      C1365   1.443       .  S
C1362      C1363   1.408       .  A
C1363      C1364   1.402       .  A
C1363      H1376   1.084       .  S
C1364      C1366   1.444       .  S
C1365      N1369   1.157       .  T
C1366      N1370   1.157       .  T
C1367      N1372   1.157       .  T
C1368      N1371   1.157       .  T
C1377      C1378   1.407       .  A
C1377      C1382   1.402       .  A
C1377      C1391   1.444       .  S
C1378      C1383   1.483       .  S
C1378      C1379   1.400       .  A
C1379      C1380   1.401       .  A
C1379      H1398   1.085       .  S
C1380      C1381   1.419       .  A
C1380      C1392   1.444       .  S
C1381      C1382   1.409       .  A
C1382      H1397   1.084       .  S
C1383      C1384   1.403       .  A
C1383      C1388   1.407       .  A
C1384      C1385   1.404       .  A
C1384      H1399   1.085       .  S
C1385      C1386   1.417       .  A
C1385      C1389   1.444       .  S
C1386      C1387   1.406       .  A
C1387      C1388   1.397       .  A
C1387      H1400   1.085       .  S
C1388      C1390   1.444       .  S
C1389      N1393   1.157       .  T
C1390      N1394   1.157       .  T
C1391      N1396   1.157       .  T
C1392      N1395   1.157       .  T
C1401      C1402   1.410       .  A
C1401      C1406   1.405       .  A
C1401      C1415   1.444       .  S
C1402      C1407   1.490       .  S
C1402      C1403   1.402       .  A
C1403      C1404   1.401       .  A
C1403      H1422   1.085       .  S
C1404      C1405   1.418       .  A
C1404      C1416   1.444       .  S
C1405      C1406   1.410       .  A
C1406      H1421   1.084       .  S
C1407      C1408   1.404   1_556  A
C1407      C1412   1.412   1_556  A
C1408      C1409   1.402       .  A
C1408      H1423   1.085       .  S
C1409      C1410   1.414       .  A
C1409      C1413   1.444       .  S
C1410      C1411   1.407       .  A
C1411      C1412   1.403       .  A
C1411      H1424   1.084       .  S
C1412      C1414   1.444       .  S
C1413      N1417   1.157       .  T
C1414      N1418   1.157   1_554  T
C1415      N1420   1.157       .  T
C1416      N1419   1.157       .  T
C1425      C1426   1.409       .  A
C1425      C1430   1.404       .  A
C1425      C1439   1.444       .  S
C1426      C1431   1.485       .  S
C1426      C1427   1.400       .  A
C1427      C1428   1.399       .  A
C1427      H1446   1.085       .  S
C1428      C1429   1.418       .  A
C1428      C1440   1.445       .  S
C1429      C1430   1.408       .  A
C1430      H1445   1.084       .  S
C1431      C1432   1.402       .  A
C1431      C1436   1.409       .  A
C1432      C1433   1.404       .  A
C1432      H1447   1.085       .  S
C1433      C1434   1.418       .  A
C1433      C1437   1.444       .  S
C1434      C1435   1.406       .  A
C1435      C1436   1.399       .  A
C1435      H1448   1.085       .  S
C1436      C1438   1.444       .  S
C1437      N1441   1.157       .  T
C1438      N1442   1.157       .  T
C1439      N1444   1.157       .  T
C1440      N1443   1.157       .  T
C1449      C1450   1.410       .  A
C1449      C1454   1.400       .  A
C1449      C1463   1.444       .  S
C1450      C1455   1.487       .  S
C1450      C1451   1.402       .  A
C1451      C1452   1.401       .  A
C1451      H1470   1.085       .  S
C1452      C1453   1.417       .  A
C1452      C1464   1.444       .  S
C1453      C1454   1.407       .  A
C1454      H1469   1.085       .  S
C1455      C1456   1.402       .  A
C1455      C1460   1.410       .  A
C1456      C1457   1.403       .  A
C1456      H1471   1.085       .  S
C1457      C1458   1.419       .  A
C1457      C1461   1.444       .  S
C1458      C1459   1.407       .  A
C1459      C1460   1.400       .  A
C1459      H1472   1.084       .  S
C1460      C1462   1.445       .  S
C1461      N1465   1.157       .  T
C1462      N1466   1.157       .  T
C1463      N1468   1.157       .  T
C1464      N1467   1.157       .  T
C1473      C1474   1.409   1_565  A
C1473      C1478   1.404       .  A
C1473      C1487   1.443       .  S
C1474      C1479   1.489       .  S
C1474      C1475   1.401   1_545  A
C1475      C1476   1.403       .  A
C1475      H1494   1.085   1_565  S
C1476      C1477   1.420       .  A
C1476      C1488   1.444       .  S
C1477      C1478   1.409       .  A
C1478      H1493   1.084       .  S
C1479      C1480   1.402       .  A
C1479      C1484   1.409       .  A
C1480      C1481   1.403       .  A
C1480      H1495   1.085       .  S
C1481      C1482   1.418       .  A
C1481      C1485   1.444       .  S
C1482      C1483   1.409       .  A
C1483      C1484   1.404       .  A
C1483      H1496   1.084       .  S
C1484      C1486   1.444       .  S
C1485      N1489   1.157       .  T
C1486      N1490   1.157       .  T
C1487      N1492   1.157   1_565  T
C1488      N1491   1.157       .  T
C1497      C1498   1.407       .  A
C1497      C1502   1.400       .  A
C1497      C1511   1.444       .  S
C1498      C1503   1.485       .  S
C1498      C1499   1.401       .  A
C1499      C1500   1.404       .  A
C1499      H1518   1.085       .  S
C1500      C1501   1.419       .  A
C1500      C1512   1.444       .  S
C1501      C1502   1.409       .  A
C1502      H1517   1.084       .  S
C1503      C1504   1.402       .  A
C1503      C1508   1.407       .  A
C1504      C1505   1.405       .  A
C1504      H1519   1.084       .  S
C1505      C1506   1.417       .  A
C1505      C1509   1.443       .  S
C1506      C1507   1.408       .  A
C1507      C1508   1.399       .  A
C1507      H1520   1.084       .  S
C1508      C1510   1.444       .  S
C1509      N1513   1.157       .  T
C1510      N1514   1.157       .  T
C1511      N1516   1.157       .  T
C1512      N1515   1.157       .  T
C1521      C1522   1.409       .  A
C1521      C1526   1.398       .  A
C1521      C1535   1.445       .  S
C1522      C1527   1.485       .  S
C1522      C1523   1.404       .  A
C1523      C1524   1.404       .  A
C1523      H1542   1.085       .  S
C1524      C1525   1.416       .  A
C1524      C1536   1.444       .  S
C1525      C1526   1.406       .  A
C1526      H1541   1.085       .  S
C1527      C1528   1.403   1_556  A
C1527      C1532   1.408   1_556  A
C1528      C1529   1.403       .  A
C1528      H1543   1.085   1_554  S
C1529      C1530   1.418       .  A
C1529      C1533   1.444       .  S
C1530      C1531   1.408       .  A
C1531      C1532   1.398       .  A
C1531      H1544   1.084       .  S
C1532      C1534   1.444   1_554  S
C1533      N1537   1.157       .  T
C1534      N1538   1.157       .  T
C1535      N1540   1.157       .  T
C1536      N1539   1.157       .  T
C1545      C1546   1.409       .  A
C1545      C1550   1.400       .  A
C1545      C1559   1.445       .  S
C1546      C1551   1.488       .  S
C1546      C1547   1.402       .  A
C1547      C1548   1.406       .  A
C1547      H1566   1.084       .  S
C1548      C1549   1.419       .  A
C1548      C1560   1.443       .  S
C1549      C1550   1.409       .  A
C1550      H1565   1.084       .  S
C1551      C1552   1.402       .  A
C1551      C1556   1.410       .  A
C1552      C1553   1.401       .  A
C1552      H1567   1.085       .  S
C1553      C1554   1.418       .  A
C1553      C1557   1.445       .  S
C1554      C1555   1.407       .  A
C1555      C1556   1.403       .  A
C1555      H1568   1.084       .  S
C1556      C1558   1.443       .  S
C1557      N1561   1.158       .  T
C1558      N1562   1.157       .  T
C1559      N1564   1.157       .  T
C1560      N1563   1.157       .  T
C1569      C1570   1.407       .  A
C1569      C1574   1.402       .  A
C1569      C1583   1.443       .  S
C1570      C1575   1.481       .  S
C1570      C1571   1.399       .  A
C1571      C1572   1.399       .  A
C1571      H1590   1.085       .  S
C1572      C1573   1.420       .  A
C1572      C1584   1.444       .  S
C1573      C1574   1.409       .  A
C1574      H1589   1.084       .  S
C1575      C1576   1.399       .  A
C1575      C1580   1.407       .  A
C1576      C1577   1.399       .  A
C1576      H1591   1.085       .  S
C1577      C1578   1.419       .  A
C1577      C1581   1.444       .  S
C1578      C1579   1.409       .  A
C1579      C1580   1.404       .  A
C1579      H1592   1.084       .  S
C1580      C1582   1.444       .  S
C1581      N1585   1.157       .  T
C1582      N1586   1.157       .  T
C1583      N1588   1.157       .  T
C1584      N1587   1.157       .  T
C1593      C1594   1.408       .  A
C1593      C1598   1.400       .  A
C1593      C1607   1.444       .  S
C1594      C1599   1.486       .  S
C1594      C1595   1.402       .  A
C1595      C1596   1.402       .  A
C1595      H1614   1.085       .  S
C1596      C1597   1.418       .  A
C1596      C1608   1.444       .  S
C1597      C1598   1.408       .  A
C1598      H1613   1.084       .  S
C1599      C1600   1.403       .  A
C1599      C1604   1.410       .  A
C1600      C1601   1.401       .  A
C1600      H1615   1.085       .  S
C1601      C1602   1.415       .  A
C1601      C1605   1.445       .  S
C1602      C1603   1.405       .  A
C1603      C1604   1.400       .  A
C1603      H1616   1.085       .  S
C1604      C1606   1.443       .  S
C1605      N1609   1.157       .  T
C1606      N1610   1.157       .  T
C1607      N1612   1.157       .  T
C1608      N1611   1.157       .  T
C1617      C1618   1.407       .  A
C1617      C1622   1.401       .  A
C1617      C1631   1.444       .  S
C1618      C1623   1.481       .  S
C1618      C1619   1.399       .  A
C1619      C1620   1.402       .  A
C1619      H1638   1.085       .  S
C1620      C1621   1.419       .  A
C1620      C1632   1.443       .  S
C1621      C1622   1.408       .  A
C1622      H1637   1.084       .  S
C1623      C1624   1.400       .  A
C1623      C1628   1.407       .  A
C1624      C1625   1.401       .  A
C1624      H1639   1.085       .  S
C1625      C1626   1.417       .  A
C1625      C1629   1.444       .  S
C1626      C1627   1.408       .  A
C1627      C1628   1.401       .  A
C1627      H1640   1.084       .  S
C1628      C1630   1.444       .  S
C1629      N1633   1.157       .  T
C1630      N1634   1.157       .  T
C1631      N1636   1.157       .  T
C1632      N1635   1.157       .  T
C1641      C1642   1.408       .  A
C1641      C1646   1.401       .  A
C1641      C1655   1.444       .  S
C1642      C1647   1.484       .  S
C1642      C1643   1.401       .  A
C1643      C1644   1.401       .  A
C1643      H1662   1.085       .  S
C1644      C1645   1.418       .  A
C1644      C1656   1.443       .  S
C1645      C1646   1.410       .  A
C1646      H1661   1.084       .  S
C1647      C1648   1.400       .  A
C1647      C1652   1.409       .  A
C1648      C1649   1.400       .  A
C1648      H1663   1.085       .  S
C1649      C1650   1.419       .  A
C1649      C1653   1.444       .  S
C1650      C1651   1.408       .  A
C1651      C1652   1.402       .  A
C1651      H1664   1.084       .  S
C1652      C1654   1.444       .  S
C1653      N1657   1.157       .  T
C1654      N1658   1.157       .  T
C1655      N1660   1.157       .  T
C1656      N1659   1.157       .  T
C1665      C1666   1.409       .  A
C1665      C1670   1.396       .  A
C1665      C1679   1.445       .  S
C1666      C1671   1.483   1_554  S
C1666      C1667   1.403       .  A
C1667      C1668   1.403       .  A
C1667      H1686   1.085       .  S
C1668      C1669   1.416       .  A
C1668      C1680   1.444       .  S
C1669      C1670   1.406       .  A
C1670      H1685   1.085       .  S
C1671      C1672   1.401       .  A
C1671      C1676   1.408       .  A
C1672      C1673   1.400       .  A
C1672      H1687   1.085       .  S
C1673      C1674   1.416       .  A
C1673      C1677   1.443       .  S
C1674      C1675   1.408       .  A
C1675      C1676   1.400       .  A
C1675      H1688   1.084       .  S
C1676      C1678   1.444       .  S
C1677      N1681   1.157       .  T
C1678      N1682   1.157       .  T
C1679      N1684   1.157       .  T
C1680      N1683   1.157       .  T
C1689      C1690   1.411       .  A
C1689      C1694   1.401       .  A
C1689      C1703   1.444       .  S
C1690      C1695   1.491       .  S
C1690      C1691   1.403       .  A
C1691      C1692   1.402       .  A
C1691      H1710   1.085       .  S
C1692      C1693   1.419       .  A
C1692      C1704   1.445       .  S
C1693      C1694   1.407       .  A
C1694      H1709   1.084       .  S
C1695      C1696   1.404       .  A
C1695      C1700   1.411       .  A
C1696      C1697   1.402       .  A
C1696      H1711   1.085       .  S
C1697      C1698   1.415       .  A
C1697      C1701   1.443       .  S
C1698      C1699   1.408       .  A
C1699      C1700   1.402       .  A
C1699      H1712   1.084       .  S
C1700      C1702   1.445       .  S
C1701      N1705   1.157       .  T
C1702      N1706   1.157       .  T
C1703      N1708   1.157       .  T
C1704      N1707   1.158       .  T
C1713      C1714   1.408       .  A
C1713      C1718   1.403       .  A
C1713      C1727   1.444       .  S
C1714      C1719   1.483       .  S
C1714      C1715   1.399       .  A
C1715      C1716   1.399       .  A
C1715      H1734   1.085       .  S
C1716      C1717   1.419       .  A
C1716      C1728   1.444       .  S
C1717      C1718   1.409       .  A
C1718      H1733   1.084       .  S
C1719      C1720   1.401       .  A
C1719      C1724   1.409       .  A
C1720      C1721   1.401       .  A
C1720      H1735   1.085       .  S
C1721      C1722   1.418       .  A
C1721      C1725   1.444       .  S
C1722      C1723   1.408       .  A
C1723      C1724   1.400       .  A
C1723      H1736   1.084       .  S
C1724      C1726   1.444       .  S
C1725      N1729   1.157       .  T
C1726      N1730   1.157       .  T
C1727      N1732   1.157       .  T
C1728      N1731   1.157       .  T
C1737      C1738   1.407       .  A
C1737      C1742   1.395       .  A
C1737      C1751   1.445       .  S
C1738      C1743   1.478       .  S
C1738      C1739   1.400       .  A
C1739      C1740   1.403       .  A
C1739      H1758   1.084       .  S
C1740      C1741   1.418       .  A
C1740      C1752   1.443       .  S
C1741      C1742   1.407       .  A
C1742      H1757   1.084       .  S
C1743      C1744   1.400       .  A
C1743      C1748   1.407       .  A
C1744      C1745   1.401       .  A
C1744      H1759   1.085       .  S
C1745      C1746   1.416       .  A
C1745      C1749   1.444       .  S
C1746      C1747   1.406       .  A
C1747      C1748   1.398       .  A
C1747      H1760   1.085       .  S
C1748      C1750   1.444       .  S
C1749      N1753   1.157       .  T
C1750      N1754   1.157       .  T
C1751      N1756   1.157       .  T
C1752      N1755   1.157       .  T
C1761      C1762   1.409       .  A
C1761      C1766   1.401       .  A
C1761      C1775   1.444       .  S
C1762      C1767   1.484       .  S
C1762      C1763   1.401       .  A
C1763      C1764   1.399       .  A
C1763      H1782   1.085       .  S
C1764      C1765   1.418       .  A
C1764      C1776   1.444       .  S
C1765      C1766   1.408       .  A
C1766      H1781   1.084       .  S
C1767      C1768   1.402   1_545  A
C1767      C1772   1.409   1_545  A
C1768      C1769   1.401       .  A
C1768      H1783   1.085   1_565  S
C1769      C1770   1.417       .  A
C1769      C1773   1.444       .  S
C1770      C1771   1.406       .  A
C1771      C1772   1.398       .  A
C1771      H1784   1.084       .  S
C1772      C1774   1.444       .  S
C1773      N1777   1.157       .  T
C1774      N1778   1.157       .  T
C1775      N1780   1.157   1_545  T
C1776      N1779   1.157       .  T
C1785      C1786   1.410       .  A
C1785      C1790   1.400       .  A
C1785      C1799   1.444       .  S
C1786      C1791   1.487       .  S
C1786      C1787   1.403       .  A
C1787      C1788   1.402       .  A
C1787      H1806   1.085       .  S
C1788      C1789   1.417       .  A
C1788      C1800   1.444       .  S
C1789      C1790   1.407       .  A
C1790      H1805   1.084       .  S
C1791      C1792   1.403       .  A
C1791      C1796   1.409       .  A
C1792      C1793   1.403       .  A
C1792      H1807   1.085       .  S
C1793      C1794   1.418       .  A
C1793      C1797   1.443       .  S
C1794      C1795   1.408       .  A
C1795      C1796   1.399       .  A
C1795      H1808   1.084       .  S
C1796      C1798   1.445       .  S
C1797      N1801   1.157       .  T
C1798      N1802   1.157       .  T
C1799      N1804   1.157       .  T
C1800      N1803   1.157       .  T
C1809      C1810   1.411   1_554  A
C1809      C1814   1.402       .  A
C1809      C1823   1.444   1_554  S
C1810      C1815   1.491       .  S
C1810      C1811   1.403   1_556  A
C1811      C1812   1.402       .  A
C1811      H1830   1.085       .  S
C1812      C1813   1.417       .  A
C1812      C1824   1.444       .  S
C1813      C1814   1.408       .  A
C1814      H1829   1.084       .  S
C1815      C1816   1.404       .  A
C1815      C1820   1.411       .  A
C1816      C1817   1.403       .  A
C1816      H1831   1.085       .  S
C1817      C1818   1.417       .  A
C1817      C1821   1.443       .  S
C1818      C1819   1.408       .  A
C1819      C1820   1.401       .  A
C1819      H1832   1.084       .  S
C1820      C1822   1.444       .  S
C1821      N1825   1.157       .  T
C1822      N1826   1.157       .  T
C1823      N1828   1.157       .  T
C1824      N1827   1.157       .  T
C1833      C1834   1.409       .  A
C1833      C1838   1.396       .  A
C1833      C1847   1.445       .  S
C1834      C1839   1.484       .  S
C1834      C1835   1.402       .  A
C1835      C1836   1.403       .  A
C1835      H1854   1.084       .  S
C1836      C1837   1.418       .  A
C1836      C1848   1.444       .  S
C1837      C1838   1.406       .  A
C1838      H1853   1.084       .  S
C1839      C1840   1.402       .  A
C1839      C1844   1.410       .  A
C1840      C1841   1.397       .  A
C1840      H1855   1.085       .  S
C1841      C1842   1.415       .  A
C1841      C1845   1.445       .  S
C1842      C1843   1.406       .  A
C1843      C1844   1.401       .  A
C1843      H1856   1.085       .  S
C1844      C1846   1.444       .  S
C1845      N1849   1.157       .  T
C1846      N1850   1.157       .  T
C1847      N1852   1.157       .  T
C1848      N1851   1.157       .  T
C1857      C1858   1.410       .  A
C1857      C1862   1.401       .  A
C1857      C1871   1.444       .  S
C1858      C1863   1.484       .  S
C1858      C1859   1.400       .  A
C1859      C1860   1.397       .  A
C1859      H1878   1.085       .  S
C1860      C1861   1.418       .  A
C1860      C1872   1.444       .  S
C1861      C1862   1.407       .  A
C1862      H1877   1.085       .  S
C1863      C1864   1.401       .  A
C1863      C1868   1.410       .  A
C1864      C1865   1.400       .  A
C1864      H1879   1.085       .  S
C1865      C1866   1.418       .  A
C1865      C1869   1.444       .  S
C1866      C1867   1.407       .  A
C1867      C1868   1.399       .  A
C1867      H1880   1.084       .  S
C1868      C1870   1.444       .  S
C1869      N1873   1.157       .  T
C1870      N1874   1.157       .  T
C1871      N1876   1.157       .  T
C1872      N1875   1.157       .  T
C1881      C1882   1.409       .  A
C1881      C1886   1.403       .  A
C1881      C1895   1.444       .  S
C1882      C1887   1.488       .  S
C1882      C1883   1.402       .  A
C1883      C1884   1.403       .  A
C1883      H1902   1.085       .  S
C1884      C1885   1.417       .  A
C1884      C1896   1.444       .  S
C1885      C1886   1.407       .  A
C1886      H1901   1.084       .  S
C1887      C1888   1.402       .  A
C1887      C1892   1.409       .  A
C1888      C1889   1.401       .  A
C1888      H1903   1.085       .  S
C1889      C1890   1.418       .  A
C1889      C1893   1.444       .  S
C1890      C1891   1.408       .  A
C1891      C1892   1.403       .  A
C1891      H1904   1.084       .  S
C1892      C1894   1.443       .  S
C1893      N1897   1.157       .  T
C1894      N1898   1.157       .  T
C1895      N1900   1.157       .  T
C1896      N1899   1.157       .  T
C1905      C1906   1.411       .  A
C1905      C1910   1.401       .  A
C1905      C1919   1.445       .  S
C1906      C1911   1.493       .  S
C1906      C1907   1.404       .  A
C1907      C1908   1.404       .  A
C1907      H1926   1.084       .  S
C1908      C1909   1.416       .  A
C1908      C1920   1.443       .  S
C1909      C1910   1.408       .  A
C1910      H1925   1.084       .  S
C1911      C1912   1.403       .  A
C1911      C1916   1.412       .  A
C1912      C1913   1.402       .  A
C1912      H1927   1.085       .  S
C1913      C1914   1.418       .  A
C1913      C1917   1.444       .  S
C1914      C1915   1.407       .  A
C1915      C1916   1.403       .  A
C1915      H1928   1.084       .  S
C1916      C1918   1.444       .  S
C1917      N1921   1.157       .  T
C1918      N1922   1.157       .  T
C1919      N1924   1.157       .  T
C1920      N1923   1.157       .  T
C1929      C1930   1.409       .  A
C1929      C1934   1.402       .  A
C1929      C1943   1.444       .  S
C1930      C1935   1.486       .  S
C1930      C1931   1.402       .  A
C1931      C1932   1.402       .  A
C1931      H1950   1.085       .  S
C1932      C1933   1.416       .  A
C1932      C1944   1.444       .  S
C1933      C1934   1.407       .  A
C1934      H1949   1.085       .  S
C1935      C1936   1.401       .  A
C1935      C1940   1.408       .  A
C1936      C1937   1.403       .  A
C1936      H1951   1.085       .  S
C1937      C1938   1.419       .  A
C1937      C1941   1.444       .  S
C1938      C1939   1.408       .  A
C1939      C1940   1.401       .  A
C1939      H1952   1.084       .  S
C1940      C1942   1.444       .  S
C1941      N1945   1.157       .  T
C1942      N1946   1.157       .  T
C1943      N1948   1.157       .  T
C1944      N1947   1.157       .  T
