geometry optimzed in LAMMPS
_audit_creation_date              2020-12-01 
_audit_creation_method            'lammps2cif' 
_symmetry_space_group_name_H-M    'P1' 
_symmetry_Int_Tables_number       1 
_symmetry_cell_setting            triclinic 
loop_ 
_symmetry_equiv_pos_as_xyz 
  x,y,z 
_cell_length_a                    32.09933379 
_cell_length_b                    32.501449693883636 
_cell_length_c                    32.59558757347503 
_cell_angle_alpha                 77.97222996949846 
_cell_angle_beta                  98.29732248155534 
_cell_angle_gamma                 96.2611093258108 
loop_ 
_atom_site_label 
_atom_site_type_symbol 
_atom_site_fract_x 
_atom_site_fract_y 
_atom_site_fract_z 
_atom_site_charge 
N1          N  0.97659469  0.03287481  0.50105057    -0.36100
N2          N  0.97318319  0.94243157  0.52200343    -0.56700
N3          N  0.06641070  0.94747308  0.51608480    -0.36100
N4          N  0.07084530  0.03715010  0.50104549    -0.56700
C5          C  0.93674806  0.02400973  0.51192827     0.27500
C6          C  0.98830510  0.07367316  0.50346162     0.27500
C7          C  0.05757988  0.90538719  0.52720450     0.27500
C8          C  0.10916832  0.95522565  0.51800567     0.27500
C9          C  0.93099431  0.94673577  0.51576371     0.36100
C10         C  0.97778449  0.90176571  0.52118293     0.36100
C11         C  0.06410390  0.07848633  0.48930621     0.36100
C12         C  0.11119867  0.03345349  0.49512423     0.36100
C13         C  0.92295438  0.05969860  0.52084241    -0.21400
C14         C  0.95537723  0.09091379  0.51563128    -0.21400
C15         C  0.09510361  0.88585778  0.53643695    -0.21400
C16         C  0.12747860  0.91711005  0.53053209    -0.21400
C17         C  0.90875134  0.90848543  0.51211083    -0.22500
C18         C  0.93826132  0.88007761  0.51537552    -0.22500
C19         C  0.10048618  0.10131432  0.47600807    -0.22500
C20         C  0.13026463  0.07297645  0.47995192    -0.22500
C21         C  0.91228195  0.98471763  0.51367326    -0.17800
C22         C  0.02701415  0.09662163  0.49346198    -0.17800
C23         C  0.13170282  0.99528326  0.50569909    -0.17800
C24         C  0.01674638  0.88357126  0.52480259    -0.17800
H25         H  0.89287683  0.06283311  0.53072331     0.15100
H26         H  0.95474908  0.12276273  0.52050842     0.15100
H27         H  0.09874949  0.85232065  0.54528706     0.15100
H28         H  0.16054533  0.91180148  0.53370249     0.15100
H29         H  0.87484111  0.90189330  0.50669990     0.13400
H30         H  0.93122467  0.84725956  0.51303717     0.13400
H31         H  0.10540272  0.13507881  0.46514689     0.13400
H32         H  0.16238715  0.08102051  0.47293748     0.13400
H33         H  0.99333633  0.01377039  0.48862593     0.26600
H34         H  0.04376603  0.96838347  0.50314116     0.26600
O35         O  0.94458842  0.51173185  0.38359440    -0.80400
O36         O  0.97177101  0.51172010  0.56978858    -0.65100
O37         O  0.99432174  0.52412566  0.45708921    -1.11700
C38         C  0.01752166  0.38224527  0.49025507     1.06500
O39         O  0.02244827  0.46845747  0.59750469    -0.78300
O40         O  0.07280262  0.47282488  0.53581339    -0.65900
Ni41       Ni  0.96140784  0.55790945  0.41222061     1.34900
C42         C  0.08280805  0.47749053  0.49877770     0.85200
O43         O  0.97835686  0.57814179  0.50791525    -0.78800
O44         O  0.97740584  0.60572994  0.43839307    -0.89100
C45         C  0.99593613  0.49365366  0.60093932     0.84800
O46         O  0.90834316  0.54981562  0.43436521    -0.67300
O47         O  0.03700757  0.39369076  0.52357275    -0.86600
C48         C  0.89576704  0.52826118  0.46812727     0.85600
C49         C  0.97994967  0.60929343  0.47691794     1.07200
H50         H  0.95869304  0.44403034  0.52056947     0.39000
O51         O  0.98554936  0.45971707  0.51609576    -1.09300
O52         O  0.05604208  0.47019311  0.46760638    -0.65900
Ni53       Ni  0.99433215  0.46526833  0.45847336     1.26300
O54         O  0.92083668  0.51035148  0.49895945    -0.66100
O55         O  0.99404451  0.40594654  0.46260564    -0.78400
C56         C  0.97168138  0.49190672  0.37255666     0.85000
O57         O  0.99945435  0.47346869  0.39977496    -0.65600
Ni58       Ni  0.02821788  0.43398214  0.55729682     1.27400
Ni59       Ni  0.98153461  0.51874116  0.51278081     1.26100
H60         H  0.02294881  0.53678073  0.45653158     0.39500
O61         O  0.48362479  0.01566948  0.40824745    -0.80400
O62         O  0.50518637  0.02068247  0.59709220    -0.65100
O63         O  0.52842209  0.03291187  0.48374954    -1.11700
C64         C  0.53627072  0.88521629  0.52582016     1.06500
O65         O  0.56313695  0.98695080  0.61805885    -0.78300
O66         O  0.60705925  0.95240196  0.56915737    -0.65900
Ni67       Ni  0.49390115  0.06259935  0.43737904     1.34900
C68         C  0.61950096  0.96945413  0.53372950     0.85200
O69         O  0.51193900  0.08763709  0.53370964    -0.78800
O70         O  0.50394521  0.11155935  0.46302932    -0.89100
C71         C  0.53382567  0.00646039  0.62610042     0.84800
O72         O  0.43951317  0.04857582  0.45717559    -0.67300
O73         O  0.54228254  0.89085152  0.56393054    -0.86600
C74         C  0.42714160  0.03118014  0.49252934     0.85600
C75         C  0.51053651  0.11727866  0.50116685     1.07200
H76         H  0.49058148  0.95550913  0.54325592     0.39000
O77         O  0.51859406  0.96973017  0.54263267    -1.09300
O78         O  0.59388900  0.98200154  0.50078397    -0.65900
Ni79       Ni  0.53261507  0.97438118  0.48711968     1.26300
O80         O  0.45299302  0.02029747  0.52576455    -0.66100
O81         O  0.53516831  0.91489043  0.49319240    -0.78400
C82         C  0.51185177  0.99455900  0.40056761     0.85000
O83         O  0.54150818  0.98165426  0.42908555    -0.65600
Ni84       Ni  0.55273057  0.93984116  0.58924536     1.27400
Ni85       Ni  0.51437798  0.02822119  0.53933497     1.26100
H86         H  0.55640086  0.04718799  0.48301146     0.39500
N87         N  0.49871435  0.93757951  0.05890806    -0.36100
N88         N  0.50153218  0.03173383  0.05409570    -0.56700
N89         N  0.50198144  0.04587335  0.96456423    -0.36100
N90         N  0.50183230  0.95160373  0.96977634    -0.56700
C91         C  0.50346595  0.93889732  0.10058133     0.27500
C92         C  0.50076746  0.89682183  0.05518731     0.27500
C93         C  0.50863580  0.08670640  0.96998938     0.27500
C94         C  0.51224726  0.04468497  0.92597203     0.27500
C95         C  0.49857829  0.01753834  0.09582103     0.36100
C96         C  0.49781818  0.07413061  0.04581787     0.36100
C97         C  0.49580666  0.90874565  0.97646690     0.36100
C98         C  0.50140337  0.96569172  0.92766195     0.36100
C99         C  0.50766512  0.89819654  0.12374924    -0.21400
C100        C  0.50584073  0.87187390  0.09533106    -0.21400
C101        C  0.52243702  0.11177970  0.93388846    -0.21400
C102        C  0.52509107  0.08539651  0.90642200    -0.21400
C103        C  0.49407778  0.05153970  0.11416769    -0.22500
C104        C  0.49339544  0.08696415  0.08273060    -0.22500
C105        C  0.49172436  0.89557661  0.93824197    -0.22500
C106        C  0.49511707  0.93140034  0.90748238    -0.22500
C107        C  0.50160763  0.97504722  0.11859165    -0.17800
C108        C  0.49699714  0.88122544  0.01675221    -0.17800
C109        C  0.50900023  0.00850121  0.90689625    -0.17800
C110        C  0.50157954  0.10199421  0.00619722    -0.17800
H111        H  0.51087387  0.88805191  0.15775137     0.15100
H112        H  0.50748006  0.83804554  0.10363293     0.15100
H113        H  0.53025673  0.14553534  0.92792026     0.15100
H114        H  0.53523948  0.09527980  0.87536099     0.15100
H115        H  0.49215382  0.05136653  0.14704682     0.13400
H116        H  0.49119178  0.11870988  0.08709202     0.13400
H117        H  0.48746790  0.86352147  0.93296437     0.13400
H118        H  0.49356877  0.93195603  0.87398553     0.13400
H119        H  0.49130828  0.96291198  0.03493137     0.26600
H120        H  0.48724416  0.02076124  0.98389900     0.26600
N121        N  0.94248469  0.53500881  0.01497836    -0.36100
N122        N  0.03270535  0.53490552  0.03034320    -0.56700
N123        N  0.03586211  0.54496465  0.93954168    -0.36100
N124        N  0.94497731  0.54290884  0.92459736    -0.56700
C125        C  0.94818076  0.52140501  0.05736962     0.27500
C126        C  0.90165957  0.52460881  0.00163308     0.27500
C127        C  0.07552277  0.53442220  0.95530370     0.27500
C128        C  0.02908818  0.53976267  0.89883814     0.27500
C129        C  0.02544282  0.53808662  0.06926144     0.36100
C130        C  0.07471190  0.54240366  0.02954556     0.36100
C131        C  0.90333809  0.54597818  0.92406290     0.36100
C132        C  0.95255836  0.55186467  0.88387817     0.36100
C133        C  0.91058803  0.50190269  0.07099021    -0.21400
C134        C  0.88111451  0.50426571  0.03581869    -0.21400
C135        C  0.09475772  0.52419812  0.92370585    -0.21400
C136        C  0.06567849  0.52767791  0.88822503    -0.21400
C137        C  0.06296665  0.54820749  0.09325418    -0.22500
C138        C  0.09432403  0.55055511  0.06815760    -0.22500
C139        C  0.88421308  0.55711255  0.88293027    -0.22500
C140        C  0.91525883  0.56039097  0.85740862    -0.22500
C141        C  0.98584571  0.52823429  0.08418761    -0.17800
C142        C  0.88174938  0.53518890  0.95986252    -0.17800
C143        C  0.99132394  0.54668457  0.87062086    -0.17800
C144        C  0.09566851  0.53591133  0.99669685    -0.17800
H145        H  0.90481218  0.48754958  0.10293778     0.15100
H146        H  0.84825055  0.49236066  0.03544951     0.15100
H147        H  0.12676107  0.51586422  0.92544929     0.15100
H148        H  0.07147968  0.52235040  0.85796887     0.15100
H149        H  0.06748284  0.55239393  0.12572068     0.13400
H150        H  0.12775997  0.55659314  0.07767647     0.13400
H151        H  0.85107768  0.56092094  0.87227838     0.13400
H152        H  0.91011675  0.56693674  0.82329108     0.13400
H153        H  0.96360264  0.55482029  0.99697886     0.26600
H154        H  0.01598393  0.55826944  0.95467055     0.26600
O155        O  0.58670252  0.53719844  0.00597703    -0.80400
O156        O  0.40559927  0.51200932  0.02909538    -0.65100
O157        O  0.51789741  0.48619011  0.03245420    -1.11700
C158        C  0.47320590  0.47318289  0.89005363     1.06500
O159        O  0.38328060  0.45363550  0.00431123    -0.78300
O160        O  0.43856207  0.40472081  0.98311376    -0.65900
Ni161      Ni  0.56269685  0.51885797  0.05803387     1.34900
C162        C  0.47655006  0.39544413  0.98644090     0.85200
O163        O  0.47045662  0.50501936  0.09238581    -0.78800
O164        O  0.54047882  0.50177888  0.11138627    -0.89100
C165        C  0.37621519  0.48501890  0.01955257     0.84800
O166        O  0.53944088  0.57264542  0.04936646    -0.67300
O167        O  0.43870868  0.45776520  0.90495599    -0.86600
C168        C  0.50498602  0.58677652  0.03033952     0.85600
C169        C  0.50303030  0.50183536  0.12044447     1.07200
H170        H  0.45102352  0.52298265  0.95672745     0.39000
O171        O  0.45637242  0.49575127  0.97434578    -1.09300
O172        O  0.50734907  0.42406098  0.98239056    -0.65900
Ni173      Ni  0.51328418  0.48637620  0.97272675     1.26300
O174        O  0.47450222  0.56241677  0.01665371    -0.66100
O175        O  0.50513616  0.48826842  0.91231209    -0.78400
C176        C  0.59764594  0.51260832  0.98448854     0.85000
O177        O  0.57233619  0.48278123  0.97366972    -0.65600
Ni178      Ni  0.41334732  0.45621264  0.95604709     1.27400
Ni179      Ni  0.46260519  0.50105301  0.03264404     1.26100
H180        H  0.51949505  0.45736418  0.04760598     0.39500
O181        O  0.49457508  0.39890712  0.55364522    -0.80400
O182        O  0.45829271  0.58121275  0.51823792    -0.65100
O183        O  0.46480788  0.47095306  0.49991803    -1.11700
C184        C  0.60402043  0.52286299  0.47596726     1.06500
O185        O  0.48017446  0.60372550  0.45574824    -0.78300
O186        O  0.50633686  0.55358302  0.41070441    -0.65900
Ni187      Ni  0.44099771  0.42336099  0.53583258     1.34900
C188        C  0.50679660  0.51616387  0.40535212     0.85200
O189        O  0.40026019  0.51461320  0.51788080    -0.78800
O190        O  0.38620141  0.44501906  0.51881130    -0.89100
C191        C  0.46788443  0.61120091  0.48860872     0.84800
O192        O  0.44659276  0.44428999  0.58753829    -0.67300
O193        O  0.58608386  0.55645233  0.45749542    -0.86600
C194        C  0.46381630  0.47807679  0.59853105     0.85600
C195        C  0.37447451  0.48195457  0.51604236     1.07200
H196        H  0.53468846  0.53994862  0.52791219     0.39000
O197        O  0.51789978  0.53431474  0.50228410    -1.09300
O198        O  0.51586027  0.48578413  0.43601409    -0.65900
Ni199      Ni  0.52461830  0.47858141  0.49763742     1.26300
O200        O  0.47576289  0.51018217  0.57174783    -0.66100
O201        O  0.58441843  0.48993310  0.49567428    -0.78400
C202        C  0.51826408  0.39218582  0.52796090     0.85000
O203        O  0.52898949  0.42094013  0.49775708    -0.65600
Ni204      Ni  0.53215886  0.57862579  0.45733551     1.27400
Ni205      Ni  0.45959293  0.52505654  0.51083341     1.26100
H206        H  0.45077414  0.47033084  0.47172551     0.39500
C207        C  0.48948183  0.49026897  0.78194466     0.30200
C208        C  0.50550527  0.51044027  0.74386882    -0.36100
C209        C  0.48797366  0.49504644  0.70699989     0.16200
C210        C  0.45733684  0.46174928  0.70796016     0.22000
C211        C  0.44115371  0.44205209  0.74562573    -0.34200
C212        C  0.45815779  0.45768016  0.78204062     0.16100
O213        O  0.50030838  0.49974046  0.82007447    -0.26200
C214        C  0.47516374  0.47299520  0.84464878     0.05900
C215        C  0.44837102  0.44631285  0.82236911    -0.31100
O216        O  0.44555382  0.45177038  0.67052039    -0.22900
C217        C  0.46839497  0.47917306  0.64445328    -0.02900
C218        C  0.49532632  0.50716517  0.66541322    -0.17400
H219        H  0.52963380  0.53649446  0.74296948     0.20600
H220        H  0.41662368  0.41635960  0.74642323     0.19000
H221        H  0.42460011  0.42223495  0.83418357     0.18900
H222        H  0.51729682  0.53236319  0.65208010     0.14800
C223        C  0.48027659  0.51189783  0.22092796     0.30200
C224        C  0.46306317  0.52964759  0.25013074    -0.36100
C225        C  0.47929802  0.51741426  0.29312213     0.16200
C226        C  0.50969837  0.48897269  0.30653994     0.22000
C227        C  0.52714439  0.47165633  0.27738763    -0.34200
C228        C  0.51158873  0.48449424  0.23449862     0.16100
O229        O  0.47151576  0.52046572  0.17908151    -0.26200
C230        C  0.49798585  0.49858391  0.16570302     0.05900
C231        C  0.52371532  0.47589964  0.19893477    -0.31100
O232        O  0.52157565  0.48307620  0.34783291    -0.22900
C233        C  0.49891980  0.50840741  0.36138300    -0.02900
C234        C  0.47222170  0.53074230  0.32856375    -0.17400
H235        H  0.43957459  0.55237276  0.23994528     0.20600
H236        H  0.55213196  0.45055628  0.28736955     0.19000
H237        H  0.54857837  0.45664802  0.19703754     0.18900
H238        H  0.45169698  0.55443207  0.33039064     0.14800
C239        C  0.77667373  0.55050680  0.96218151     0.30200
C240        C  0.74411308  0.56803326  0.97488761    -0.36100
C241        C  0.70414752  0.54701998  0.96901146     0.16200
C242        C  0.69634839  0.51115853  0.95172068     0.22000
C243        C  0.72897936  0.49403947  0.93805770    -0.34200
C244        C  0.76926555  0.51511169  0.94407402     0.16100
O245        O  0.81692592  0.56284759  0.96868813    -0.26200
C246        C  0.83560747  0.53547804  0.95405109     0.05900
C247        C  0.80775427  0.50501133  0.93824244    -0.31100
O248        O  0.65707161  0.49453677  0.95327500    -0.22900
C249        C  0.63999000  0.52035038  0.97170172    -0.02900
C250        C  0.66771278  0.55361248  0.98177857    -0.17400
H251        H  0.74989495  0.59499454  0.99020983     0.20600
H252        H  0.72372658  0.46531557  0.92553212     0.19000
H253        H  0.81510530  0.47815468  0.92657951     0.18900
H254        H  0.66240040  0.57780202  0.99836736     0.14800
C255        C  0.20520512  0.53196773  0.02271808     0.30200
C256        C  0.24722462  0.54807089  0.03062719    -0.36100
C257        C  0.27792045  0.52041580  0.03108039     0.16200
C258        C  0.26796918  0.47974879  0.02422730     0.22000
C259        C  0.22599027  0.46327187  0.01758380    -0.34200
C260        C  0.19535468  0.49091834  0.01702018     0.16100
O261        O  0.17157534  0.55337759  0.01698836    -0.26200
C262        C  0.13999936  0.52555653  0.00754531     0.05900
C263        C  0.15280714  0.48606466  0.00773318    -0.31100
O264        O  0.30144188  0.46113783  0.02101046    -0.22900
C265        C  0.33321957  0.49007748  0.02633242    -0.02900
C266        C  0.32057393  0.52741928  0.03316591    -0.17400
H267        H  0.25543103  0.58047704  0.03407213     0.20600
H268        H  0.21780261  0.43185502  0.01110768     0.19000
H269        H  0.13358857  0.45848359  0.00019743     0.18900
H270        H  0.33970001  0.55649856  0.03601295     0.14800
C271        C  0.51847558  0.69627074  0.03300383     0.30200
C272        C  0.54044549  0.73328694  0.04383107    -0.36100
C273        C  0.51916984  0.77047533  0.03197385     0.16200
C274        C  0.47882598  0.77148930  0.01077407     0.22000
C275        C  0.45661942  0.73419010  0.00005920    -0.34200
C276        C  0.47803334  0.69674136  0.01197732     0.16100
O277        O  0.53281528  0.65831291  0.04131958    -0.26200
C278        C  0.50140524  0.63335987  0.02550776     0.05900
C279        C  0.46630253  0.65574480  0.00686522    -0.31100
O280        O  0.46529081  0.81006579  0.00250863    -0.22900
C281        C  0.49735294  0.83413068  0.01897824    -0.02900
C282        C  0.53166684  0.81085526  0.03747516    -0.17400
H283        H  0.57217868  0.73310928  0.06042428     0.20600
H284        H  0.42487589  0.73435809  0.98349972     0.19000
H285        H  0.43643510  0.64355791  0.99210268     0.18900
H286        H  0.56169710  0.82223864  0.05263299     0.14800
C287        C  0.46990202  0.28308322  0.00130761     0.30200
C288        C  0.44934273  0.24195975  0.00794466    -0.36100
C289        C  0.47277924  0.20863321  0.00481828     0.16200
C290        C  0.51378047  0.21506181  0.99551378     0.22000
C291        C  0.53447982  0.25637515  0.98892244    -0.34200
C292        C  0.51104562  0.28984927  0.99240035     0.16100
O293        O  0.45319958  0.31864319  0.00169012    -0.26200
C294        C  0.48399120  0.34926514  0.99340866     0.05900
C295        C  0.52083248  0.33292509  0.98735330    -0.31100
O296        O  0.52960216  0.17911868  0.99413207    -0.22900
C297        C  0.49830838  0.14900281  0.00288263    -0.02900
C298        C  0.46228100  0.16596952  0.00967336    -0.17400
H299        H  0.41702769  0.23630605  0.01494278     0.20600
H300        H  0.56666074  0.26206905  0.98153346     0.19000
H301        H  0.55004170  0.35038881  0.97886926     0.18900
H302        H  0.43258114  0.14907631  0.01739246     0.14800
C303        C  0.48499262  0.71942439  0.48031875     0.30200
C304        C  0.49977163  0.76006719  0.46147211    -0.36100
C305        C  0.50989259  0.78889307  0.48846231     0.16200
C306        C  0.50575045  0.77845529  0.53104598     0.22000
C307        C  0.49044920  0.73792642  0.54980995    -0.34200
C308        C  0.48014297  0.70910493  0.52276147     0.16100
O309        O  0.47798364  0.68655858  0.46198818    -0.26200
C310        C  0.46818270  0.65490763  0.49293377     0.05900
C311        C  0.46838390  0.66707834  0.53136705    -0.31100
O312        O  0.51657752  0.81054295  0.55018533    -0.22900
C313        C  0.52757556  0.84187873  0.51940810    -0.02900
C314        C  0.52421330  0.83026468  0.48032551    -0.17400
H315        H  0.50404330  0.76832721  0.42833261     0.20600
H316        H  0.48742464  0.72931748  0.58322444     0.19000
H317        H  0.46462843  0.64721578  0.56190899     0.18900
H318        H  0.52997655  0.84982854  0.45015127     0.14800
C319        C  0.52655557  0.21197828  0.53805360     0.30200
C320        C  0.52457921  0.23907381  0.56590214    -0.36100
C321        C  0.53267823  0.28221912  0.54970503     0.16200
C322        C  0.54348480  0.29737589  0.50943036     0.22000
C323        C  0.54650368  0.27024407  0.48208579    -0.34200
C324        C  0.53676635  0.22742546  0.49765301     0.16100
O325        O  0.51587683  0.17105541  0.54484810    -0.26200
C326        C  0.51860202  0.16057216  0.50805705     0.05900
C327        C  0.53151739  0.19430339  0.47759767    -0.31100
O328        O  0.54329064  0.33856052  0.49828372    -0.22900
C329        C  0.53168598  0.35001656  0.53144156    -0.02900
C330        C  0.52524763  0.31644003  0.56473016    -0.17400
H331        H  0.51433888  0.22760804  0.59676683     0.20600
H332        H  0.55256569  0.28201985  0.44972413     0.19000
H333        H  0.53595221  0.19441496  0.44527272     0.18900
H334        H  0.51263945  0.31674864  0.59371814     0.14800
C335        C  0.54049434  0.00874590  0.80803217     0.30200
C336        C  0.56448686  0.99703904  0.78029674    -0.36100
C337        C  0.54908206  0.00685093  0.73726235     0.16200
C338        C  0.51253400  0.02684765  0.72234299     0.22000
C339        C  0.48872350  0.03904669  0.75011908    -0.34200
C340        C  0.50418289  0.02922788  0.79329725     0.16100
O341        O  0.54766907  0.00000723  0.84962316    -0.26200
C342        C  0.51582317  0.01545782  0.86183171     0.05900
C343        C  0.48776827  0.03408882  0.82818481    -0.31100
O344        O  0.50271128  0.03049392  0.68103375    -0.22900
C345        C  0.53348676  0.01269007  0.66948448    -0.02900
C346        C  0.56324723  0.99761744  0.70315767    -0.17400
H347        H  0.59253896  0.98026415  0.79160207     0.20600
H348        H  0.45957100  0.05400005  0.73897718     0.19000
H349        H  0.45860303  0.04738014  0.82943242     0.18900
H350        H  0.59046923  0.98082663  0.70275226     0.14800
C351        C  0.48282157  0.97251990  0.22265004     0.30200
C352        C  0.46110439  0.98206439  0.25331628    -0.36100
C353        C  0.48345802  0.97956897  0.29381275     0.20400
C354        C  0.52429629  0.96783476  0.30397276     0.22000
C355        C  0.54600808  0.95779716  0.27324001    -0.34200
C356        C  0.52374987  0.96091792  0.23234025     0.16100
O357        O  0.46909812  0.97692157  0.18203011    -0.26200
C358        C  0.50153635  0.96808417  0.16514194     0.05900
C359        C  0.53644071  0.95774448  0.19495024    -0.31100
O360        O  0.53980354  0.97025912  0.34338848    -0.22900
C361        C  0.50842327  0.98396839  0.35830306    -0.02900
C362        C  0.47270947  0.99016253  0.32879674    -0.17400
H363        H  0.42956419  0.99259515  0.24564780     0.20600
H364        H  0.57850132  0.94989364  0.28025463     0.19000
H365        H  0.56732030  0.95131961  0.18940723     0.18900
H366        H  0.44348279  0.00212352  0.33224182     0.14800
C367        C  0.78721317  0.54094134  0.45767012     0.30200
C368        C  0.75005596  0.56061164  0.44054352    -0.36100
C369        C  0.71309185  0.54199653  0.45730803     0.16200
C370        C  0.71242948  0.50619292  0.48862937     0.22000
C371        C  0.74987656  0.48674694  0.50624129    -0.34200
C372        C  0.78711726  0.50566342  0.48965978     0.16100
O373        O  0.82504167  0.55296836  0.44607136    -0.26200
C374        C  0.84997476  0.52542368  0.47113237     0.05900
C375        C  0.82814729  0.49531531  0.49918196    -0.31100
O376        O  0.67398436  0.49405051  0.49913891    -0.22900
C377        C  0.64987137  0.52270556  0.47435627    -0.02900
C378        C  0.67269209  0.55329382  0.44785610    -0.17400
H379        H  0.74996861  0.58853080  0.41573288     0.20600
H380        H  0.74997004  0.45885458  0.53107357     0.19000
H381        H  0.84058229  0.46938716  0.52265250     0.18900
H382        H  0.66112828  0.58004192  0.42492078     0.14800
C383        C  0.19205962  0.50547671  0.50719184     0.30200
C384        C  0.23137181  0.52028548  0.52642815    -0.36100
C385        C  0.26729947  0.50630142  0.51511980     0.16200
C386        C  0.26460284  0.47915328  0.48726585     0.22000
C387        C  0.22547559  0.46575331  0.46682187    -0.34200
C388        C  0.18966159  0.48020893  0.47761611     0.16100
O389        O  0.15449431  0.50993203  0.51710662    -0.26200
C390        C  0.12766511  0.48815179  0.49272303     0.05900
C391        C  0.14781309  0.46953213  0.46709511    -0.31100
O392        O  0.30169975  0.46688437  0.48415429    -0.22900
C393        C  0.32877053  0.48709097  0.50964630    -0.02900
C394        C  0.30923162  0.51242784  0.52947109    -0.17400
H395        H  0.23371928  0.53973876  0.55000333     0.20600
H396        H  0.22300484  0.44407961  0.44531840     0.19000
H397        H  0.13391188  0.44778748  0.44690598     0.18900
H398        H  0.32366815  0.53119115  0.55236233     0.14800
C399        C  0.98502595  0.53290858  0.69075695     0.30200
C400        C  0.97672928  0.56226750  0.71411484    -0.36100
C401        C  0.98389066  0.54964873  0.75830960     0.16200
C402        C  0.99741204  0.51062815  0.77782220     0.22000
C403        C  0.00614143  0.48169961  0.75461898    -0.34200
C404        C  0.99978590  0.49452736  0.71074113     0.16100
O405        O  0.98098081  0.53779090  0.64917489    -0.26200
C406        C  0.99391769  0.50226801  0.64289075     0.05900
C407        C  0.00614536  0.47439470  0.68001373    -0.31100
O408        O  0.00145400  0.50479937  0.81920968    -0.22900
C409        C  0.99099129  0.54067055  0.82675313    -0.02900
C410        C  0.98003312  0.57003720  0.79000674    -0.17400
H411        H  0.96579337  0.59276534  0.69896751     0.20600
H412        H  0.01741512  0.45134802  0.76978928     0.19000
H413        H  0.01780298  0.44363736  0.68373424     0.18900
H414        H  0.97056607  0.60157017  0.78716936     0.14800
C415        C  0.99502663  0.50020920  0.19487646     0.30200
C416        C  0.01070207  0.47922913  0.23532963    -0.36100
C417        C  0.99121564  0.48633056  0.26873286     0.16200
C418        C  0.95855474  0.51219655  0.26264492     0.22000
C419        C  0.94293687  0.53313719  0.22229631    -0.34200
C420        C  0.96251277  0.52619232  0.18901930     0.16100
O421        O  0.00822096  0.49797205  0.15903669    -0.26200
C422        C  0.98374447  0.52281660  0.13000745     0.05900
C423        C  0.95503210  0.54151048  0.14690136    -0.31100
O424        O  0.94630280  0.51596536  0.29833885    -0.22900
C425        C  0.97140476  0.49226670  0.32768911    -0.02900
C426        C  0.99991447  0.47286163  0.31122632    -0.17400
H427        H  0.03647636  0.45914022  0.24042258     0.20600
H428        H  0.91767669  0.55383735  0.21727104     0.19000
H429        H  0.93157782  0.56266379  0.13033718     0.18900
H430        H  0.02459048  0.45334258  0.32814929     0.14800
C431        C  0.23780673  0.01400661  0.48114288     0.30200
C432        C  0.27033925  0.03004358  0.45592400    -0.36100
C433        C  0.31211473  0.02502127  0.47551771     0.16200
C434        C  0.32153215  0.00558485  0.51717716     0.22000
C435        C  0.28890122  0.98952066  0.54244570    -0.34200
C436        C  0.24702325  0.99454982  0.52281271     0.16100
O437        O  0.19664172  0.01614860  0.46937680    -0.26200
C438        C  0.17874985  0.99772769  0.50390967     0.05900
C439        C  0.20885487  0.98382877  0.53814981    -0.31100
O440        O  0.36293056  0.00478250  0.52907728    -0.22900
C441        C  0.38044186  0.02391647  0.49447189    -0.02900
C442        C  0.35005465  0.03709992  0.46031320    -0.17400
H443        H  0.26355626  0.04568737  0.42325811     0.20600
H444        H  0.29568319  0.97439153  0.57527179     0.19000
H445        H  0.20338448  0.96880886  0.57002328     0.18900
H446        H  0.35522385  0.05356716  0.42876944     0.14800
C447        C  0.72491197  0.99038114  0.50838094     0.30200
C448        C  0.75807023  0.00869133  0.48459838    -0.36100
C449        C  0.79875872  0.99545165  0.50065156     0.16200
C450        C  0.80625052  0.96580475  0.53730756     0.22000
C451        C  0.77325176  0.94778983  0.56119539    -0.34200
C452        C  0.73278559  0.96144590  0.54548955     0.16100
O453        O  0.68431880  0.99762728  0.49907177    -0.26200
C454        C  0.66592910  0.97338832  0.53101274     0.05900
C455        C  0.69482351  0.95037543  0.56077889    -0.31100
O456        O  0.84650137  0.95774342  0.54648736    -0.22900
C457        C  0.86552054  0.98290912  0.51559048    -0.02900
C458        C  0.83719612  0.00706185  0.48614632    -0.17400
H459        H  0.75255665  0.03171768  0.45559331     0.20600
H460        H  0.77877172  0.92473486  0.59018373     0.19000
H461        H  0.68853428  0.92788411  0.58917841     0.18900
H462        H  0.84404763  0.02985286  0.45813662     0.14800
C463        C  0.00032113  0.71640626  0.47822219     0.30200
C464        C  0.01356426  0.75836154  0.46245767    -0.36100
C465        C  0.01295904  0.78649093  0.48935623     0.16200
C466        C  0.99957568  0.77452937  0.52887005     0.22000
C467        C  0.98653842  0.73233823  0.54483204    -0.34200
C468        C  0.98778226  0.70396824  0.51807380     0.16100
O469        O  0.99867191  0.68489486  0.45836245    -0.26200
C470        C  0.98537663  0.65174700  0.48598786     0.05900
C471        C  0.97810616  0.66156685  0.52374605    -0.31100
O472        O  0.99999741  0.80678792  0.54770216    -0.22900
C473        C  0.01447098  0.83934738  0.51993763    -0.02900
C474        C  0.02305536  0.82861811  0.48323499    -0.17400
H475        H  0.02362973  0.76838241  0.43136500     0.20600
H476        H  0.97610930  0.72237240  0.57576822     0.19000
H477        H  0.96723594  0.64053868  0.55118453     0.18900
H478        H  0.03369868  0.84929902  0.45549787     0.14800
C479        C  0.04251674  0.27861816  0.49907938     0.30200
C480        C  0.06108207  0.24148935  0.51939542    -0.36100
C481        C  0.04618629  0.20536355  0.50306248     0.16200
C482        C  0.01510539  0.20561435  0.46900436     0.22000
C483        C  0.99693443  0.24300715  0.44818871    -0.34200
C484        C  0.01188419  0.27929144  0.46458970     0.16100
O485        O  0.04938180  0.31505443  0.51142615    -0.26200
C486        C  0.02302248  0.33964328  0.48449137     0.05900
C487        C  0.99910389  0.31925562  0.45429808    -0.31100
O488        O  0.00443013  0.16760578  0.46059812    -0.22900
C489        C  0.02941807  0.14300121  0.48936532    -0.02900
C490        C  0.05591804  0.16473654  0.51668253    -0.17400
H491        H  0.08453973  0.24056194  0.54691956     0.20600
H492        H  0.97203011  0.24350488  0.42193280     0.19000
H493        H  0.97434313  0.33138524  0.42998104     0.18900
H494        H  0.07819991  0.15210457  0.54335236     0.14800
loop_ 
_geom_bond_atom_site_label_1 
_geom_bond_atom_site_label_2 
_geom_bond_distance 
_geom_bond_site_symmetry_2 
_ccdc_geom_bond_type 
N1            C6   1.353       .  A
N1            C5   1.361       .  A
N1           H33   1.039       .  S
N2            C9   1.358       .  A
N2           C10   1.352       .  A
N3            C8   1.363       .  A
N3            C7   1.350       .  A
N3           H34   1.033       .  S
N4           C11   1.350       .  A
N4           C12   1.358       .  A
C5           C13   1.384       .  A
C5           C21   1.419   1_545  A
C6           C22   1.421   1_655  A
C6           C14   1.390       .  A
C7           C15   1.388       .  A
C7           C24   1.420       .  A
C8           C23   1.428       .  A
C8           C16   1.388       .  A
C9           C21   1.416       .  A
C9           C17   1.383       .  A
C10          C24   1.420   1_655  A
C10          C18   1.390       .  A
C11          C19   1.388       .  A
C11          C22   1.420       .  A
C12          C20   1.386       .  A
C12          C23   1.423   1_545  A
C13          C14   1.375       .  A
C13          H25   1.082       .  S
C14          H26   1.082       .  S
C15          C16   1.377       .  A
C15          H27   1.083       .  S
C16          H28   1.081       .  S
C17          C18   1.372       .  A
C17          H29   1.082       .  S
C18          H30   1.082       .  S
C19          C20   1.373       .  A
C19          H31   1.082       .  S
C20          H32   1.081       .  S
C21         C457   1.506       .  S
C22         C489   1.480       .  S
C23         C438   1.513       .  S
C24         C473   1.471       .  S
O35         Ni41   1.917       .  S
O35          C56   1.269       .  A
O36         Ni59   1.892       .  S
O36          C45   1.265       .  A
O37         Ni41   1.897       .  S
O37         Ni59   1.887       .  S
O37         Ni53   1.904       .  S
O37          H60   0.966   1_655  S
C38         C486   1.468       .  S
C38          O55   1.271   1_455  A
C38          O47   1.277       .  A
O39         Ni58   1.933       .  S
O39          C45   1.275   1_455  A
O40         Ni58   1.913       .  S
O40          C42   1.268       .  A
Ni41         O44   1.913       .  S
Ni41         O46   1.916       .  S
C42         C390   1.475       .  S
C42          O52   1.277       .  A
O43         Ni59   1.917       .  S
O43          C49   1.275       .  A
O44          C49   1.275       .  A
C45         C406   1.463       .  S
O46          C48   1.269       .  A
O47         Ni58   1.942       .  S
C48         C374   1.479       .  S
C48          O54   1.273       .  A
C49         C470   1.458       .  S
H50          O51   0.966       .  S
O51         Ni59   1.916       .  S
O51         Ni53   1.908       .  S
O51         Ni58   1.905   1_655  S
O52         Ni53   1.954   1_455  S
Ni53         O57   1.905       .  S
Ni53         O55   1.904       .  S
O54         Ni59   1.938       .  S
C56         C425   1.459       .  S
C56          O57   1.268       .  A
O61         Ni67   1.934       .  S
O61          C82   1.276   1_545  A
O62         Ni85   1.909       .  S
O62          C71   1.270       .  A
O63         Ni67   1.894       .  S
O63         Ni85   1.901       .  S
O63         Ni79   1.901   1_545  S
O63          H86   0.966       .  S
C64         C313   1.458       .  S
C64          O81   1.277       .  A
C64          O73   1.277       .  A
O65         Ni84   1.933       .  S
O65          C71   1.275   1_565  A
O66         Ni84   1.923       .  S
O66          C68   1.272       .  A
Ni67         O70   1.924       .  S
Ni67         O72   1.924       .  S
C68         C454   1.496       .  S
C68          O78   1.277       .  A
O69         Ni85   1.911       .  S
O69          C75   1.275       .  A
O70          C75   1.279       .  A
C71         C345   1.471       .  S
O72          C74   1.272       .  A
O73         Ni84   1.918       .  S
C74         C441   1.500       .  S
C74          O80   1.278       .  A
C75         C326   1.460       .  S
H76          O77   0.966       .  S
O77         Ni85   1.900   1_565  S
O77         Ni79   1.899       .  S
O77         Ni84   1.895       .  S
O78         Ni79   1.953       .  S
Ni79         O83   1.916       .  S
Ni79         O81   1.912       .  S
O80         Ni85   1.957       .  S
C82         C361   1.474       .  S
C82          O83   1.271       .  A
N87          C92   1.365       .  A
N87          C91   1.354       .  A
N87         H119   1.033       .  S
N88          C95   1.356       .  A
N88          C96   1.363       .  A
N89          C94   1.355       .  A
N89          C93   1.365       .  A
N89         H120   1.037       .  S
N90          C97   1.361       .  A
N90          C98   1.352       .  A
C91          C99   1.390       .  A
C91         C107   1.429       .  A
C92         C108   1.431       .  A
C92         C100   1.386       .  A
C93         C101   1.385       .  A
C93         C110   1.427   1_556  A
C94         C109   1.428       .  A
C94         C102   1.390       .  A
C95         C107   1.431   1_545  A
C95         C103   1.391       .  A
C96         C110   1.427       .  A
C96         C104   1.383       .  A
C97         C105   1.384       .  A
C97         C108   1.425   1_556  A
C98         C106   1.391       .  A
C98         C109   1.426   1_565  A
C99         C100   1.377       .  A
C99         H111   1.082       .  S
C100        H112   1.081       .  S
C101        C102   1.379       .  A
C101        H113   1.081       .  S
C102        H114   1.082       .  S
C103        C104   1.372       .  A
C103        H115   1.081       .  S
C104        H116   1.082       .  S
C105        C106   1.375       .  A
C105        H117   1.082       .  S
C106        H118   1.082       .  S
C107        C358   1.487       .  S
C108        C281   1.518       .  S
C109        C342   1.483       .  S
C110        C297   1.523       .  S
N121        C126   1.349       .  A
N121        C125   1.352       .  A
N121        H153   1.039   1_554  S
N122        C129   1.349       .  A
N122        C130   1.347       .  A
N123        C128   1.356       .  A
N123        C127   1.355       .  A
N123        H154   1.038       .  S
N124        C131   1.348       .  A
N124        C132   1.350       .  A
C125        C133   1.388       .  A
C125        C141   1.412       .  A
C126        C142   1.408   1_554  A
C126        C134   1.387       .  A
C127        C135   1.387       .  A
C127        C144   1.418       .  A
C128        C143   1.420   1_455  A
C128        C136   1.389       .  A
C129        C141   1.407   1_455  A
C129        C137   1.385       .  A
C130        C144   1.406   1_554  A
C130        C138   1.387       .  A
C131        C139   1.384       .  A
C131        C142   1.405       .  A
C132        C140   1.389       .  A
C132        C143   1.412       .  A
C133        C134   1.372       .  A
C133        H145   1.082       .  S
C134        H146   1.083       .  S
C135        C136   1.371       .  A
C135        H147   1.081       .  S
C136        H148   1.081       .  S
C137        C138   1.372       .  A
C137        H149   1.082       .  S
C138        H150   1.082       .  S
C139        C140   1.370       .  A
C139        H151   1.082       .  S
C140        H152   1.079       .  S
C141        C422   1.478       .  S
C142        C246   1.467       .  S
C143        C409   1.481       .  S
C144        C262   1.474   1_556  S
O155       Ni161   1.919       .  S
O155        C176   1.272   1_554  A
O156       Ni179   1.885       .  S
O156        C165   1.267       .  A
O157       Ni161   1.892       .  S
O157       Ni179   1.891       .  S
O157       Ni173   1.930   1_554  S
O157        H180   0.967       .  S
C158        C214   1.492       .  S
C158        O175   1.281       .  A
C158        O167   1.283       .  A
O159       Ni178   1.944   1_554  S
O159        C165   1.278       .  A
O160       Ni178   1.926       .  S
O160        C162   1.272       .  A
Ni161       O164   1.926       .  S
Ni161       O166   1.926       .  S
C162        C294   1.511       .  S
C162        O172   1.283       .  A
O163       Ni179   1.957       .  S
O163        C169   1.284       .  A
O164        C169   1.279       .  A
C165        C265   1.461       .  S
O166        C168   1.270       .  A
O167       Ni178   1.946       .  S
C168        C278   1.505       .  S
C168        O174   1.279       .  A
C169        C230   1.488       .  S
H170        O171   0.967       .  S
O171       Ni179   1.924   1_556  S
O171       Ni173   1.894       .  S
O171       Ni178   1.900       .  S
O172       Ni173   1.976       .  S
Ni173       O177   1.907       .  S
Ni173       O175   1.938       .  S
O174       Ni179   1.963       .  S
C176        C249   1.459       .  S
C176        O177   1.270       .  A
O181       Ni187   1.935       .  S
O181        C202   1.274       .  A
O182       Ni205   1.896       .  S
O182        C191   1.267       .  A
O183       Ni187   1.895       .  S
O183       Ni205   1.894       .  S
O183       Ni199   1.919       .  S
O183        H206   0.966       .  S
C184        C377   1.481       .  S
C184        O201   1.280       .  A
C184        O193   1.284       .  A
O185       Ni204   1.925       .  S
O185        C191   1.270       .  A
O186       Ni204   1.914       .  S
O186        C188   1.266       .  A
Ni187       O190   1.929       .  S
Ni187       O192   1.923       .  S
C188        C233   1.488       .  S
C188        O198   1.275       .  A
O189       Ni205   1.936       .  S
O189        C195   1.279       .  A
O190        C195   1.278       .  A
C191        C310   1.455       .  S
O192        C194   1.271       .  A
O193       Ni204   1.945       .  S
C194        C217   1.490       .  S
C194        O200   1.276       .  A
C195        C393   1.475       .  S
H196        O197   0.966       .  S
O197       Ni205   1.914       .  S
O197       Ni199   1.887       .  S
O197       Ni204   1.898       .  S
O198       Ni199   1.955       .  S
Ni199       O203   1.893       .  S
Ni199       O201   1.922       .  S
O200       Ni205   1.950       .  S
C202        C329   1.458       .  S
C202        O203   1.267       .  A
C207        C212   1.378       .  A
C207        C208   1.416       .  A
C207        O213   1.331       .  A
C208        C209   1.416       .  A
C208        H219   1.082       .  S
C209        C218   1.378       .  A
C209        C210   1.379       .  A
C210        C211   1.404       .  A
C210        O216   1.320       .  A
C211        C212   1.403       .  A
C211        H220   1.082       .  S
C212        C215   1.362       .  A
O213        C214   1.339       .  A
C214        C215   1.392       .  A
C215        H221   1.083       .  S
O216        C217   1.332       .  A
C217        C218   1.400       .  A
C218        H222   1.082       .  S
C223        C228   1.379       .  A
C223        C224   1.412       .  A
C223        O229   1.329       .  A
C224        C225   1.413       .  A
C224        H235   1.082       .  S
C225        C234   1.371       .  A
C225        C226   1.380       .  A
C226        C227   1.407       .  A
C226        O232   1.324       .  A
C227        C228   1.407       .  A
C227        H236   1.082       .  S
C228        C231   1.365       .  A
O229        C230   1.336       .  A
C230        C231   1.393       .  A
C231        H237   1.082       .  S
O232        C233   1.333       .  A
C233        C234   1.398       .  A
C234        H238   1.082       .  S
C239        C244   1.382       .  A
C239        C240   1.393       .  A
C239        O245   1.311       .  A
C240        C241   1.393       .  A
C240        H251   1.083       .  S
C241        C250   1.349       .  A
C241        C242   1.381       .  A
C242        C243   1.404       .  A
C242        O248   1.320       .  A
C243        C244   1.403       .  A
C243        H252   1.082       .  S
C244        C247   1.361       .  A
O245        C246   1.325       .  A
C246        C247   1.390       .  A
C247        H253   1.082       .  S
O248        C249   1.331       .  A
C249        C250   1.386       .  A
C250        H254   1.083       .  S
C255        C260   1.382       .  A
C255        C256   1.401       .  A
C255        O261   1.318       .  A
C256        C257   1.401       .  A
C256        H267   1.082       .  S
C257        C266   1.357       .  A
C257        C258   1.382       .  A
C258        C259   1.399       .  A
C258        O264   1.316       .  A
C259        C260   1.398       .  A
C259        H268   1.082       .  S
C260        C263   1.355       .  A
O261        C262   1.329       .  A
C262        C263   1.388       .  A
C263        H269   1.083       .  S
O264        C265   1.328       .  A
C265        C266   1.391       .  A
C266        H270   1.083       .  S
C271        C276   1.378       .  A
C271        C272   1.410       .  A
C271        O277   1.325       .  A
C272        C273   1.409       .  A
C272        H283   1.082       .  S
C273        C282   1.370       .  A
C273        C274   1.377       .  A
C274        C275   1.420       .  A
C274        O280   1.333       .  A
C275        C276   1.419       .  A
C275        H284   1.082   1_554  S
C276        C279   1.382       .  A
O277        C278   1.336       .  A
C278        C279   1.402       .  A
C279        H285   1.082   1_554  S
O280        C281   1.341       .  A
C281        C282   1.396       .  A
C282        H286   1.082       .  S
C287        C292   1.378   1_554  A
C287        C288   1.413       .  A
C287        O293   1.329       .  A
C288        C289   1.413       .  A
C288        H299   1.082       .  S
C289        C298   1.372       .  A
C289        C290   1.377   1_554  A
C290        C291   1.420       .  A
C290        O296   1.335       .  A
C291        C292   1.420       .  A
C291        H300   1.082       .  S
C292        C295   1.382       .  A
O293        C294   1.338   1_554  A
C294        C295   1.403       .  A
C295        H301   1.082       .  S
O296        C297   1.342   1_556  A
C297        C298   1.398       .  A
C298        H302   1.082       .  S
C303        C308   1.381       .  A
C303        C304   1.399       .  A
C303        O309   1.313       .  A
C304        C305   1.397       .  A
C304        H315   1.082       .  S
C305        C314   1.357       .  A
C305        C306   1.381       .  A
C306        C307   1.400       .  A
C306        O312   1.314       .  A
C307        C308   1.399       .  A
C307        H316   1.082       .  S
C308        C311   1.358       .  A
O309        C310   1.328       .  A
C310        C311   1.389       .  A
C311        H317   1.083       .  S
O312        C313   1.329       .  A
C313        C314   1.389       .  A
C314        H318   1.083       .  S
C319        C324   1.381       .  A
C319        C320   1.402       .  A
C319        O325   1.317       .  A
C320        C321   1.402       .  A
C320        H331   1.082       .  S
C321        C330   1.361       .  A
C321        C322   1.382       .  A
C322        C323   1.397       .  A
C322        O328   1.312       .  A
C323        C324   1.396       .  A
C323        H332   1.082       .  S
C324        C327   1.355       .  A
O325        C326   1.330       .  A
C326        C327   1.388       .  A
C327        H333   1.083       .  S
O328        C329   1.327       .  A
C329        C330   1.390       .  A
C330        H334   1.083       .  S
C335        C340   1.381       .  A
C335        C336   1.401   1_545  A
C335        O341   1.317       .  A
C336        C337   1.401   1_565  A
C336        H347   1.082       .  S
C337        C346   1.359   1_545  A
C337        C338   1.380       .  A
C338        C339   1.406       .  A
C338        O344   1.321       .  A
C339        C340   1.405       .  A
C339        H348   1.082       .  S
C340        C343   1.364       .  A
O341        C342   1.330       .  A
C342        C343   1.392       .  A
C343        H349   1.082       .  S
O344        C345   1.332       .  A
C345        C346   1.390   1_545  A
C346        H350   1.083       .  S
C351        C356   1.381       .  A
C351        C352   1.400       .  A
C351        O357   1.317       .  A
C352        C353   1.399       .  A
C352        H363   1.082       .  S
C353        C362   1.357       .  A
C353        C354   1.380       .  A
C354        C355   1.408       .  A
C354        O360   1.324       .  A
C355        C356   1.408       .  A
C355        H364   1.082       .  S
C356        C359   1.366       .  A
O357        C358   1.329       .  A
C358        C359   1.394       .  A
C359        H365   1.082       .  S
O360        C361   1.334       .  A
C361        C362   1.390       .  A
C362        H366   1.083   1_565  S
C367        C372   1.380       .  A
C367        C368   1.403       .  A
C367        O373   1.318       .  A
C368        C369   1.402       .  A
C368        H379   1.082       .  S
C369        C378   1.361       .  A
C369        C370   1.379       .  A
C370        C371   1.410       .  A
C370        O376   1.325       .  A
C371        C372   1.410       .  A
C371        H380   1.082       .  S
C372        C375   1.371       .  A
O373        C374   1.331       .  A
C374        C375   1.395       .  A
C375        H381   1.082       .  S
O376        C377   1.335       .  A
C377        C378   1.392       .  A
C378        H382   1.083       .  S
C383        C388   1.380       .  A
C383        C384   1.408       .  A
C383        O389   1.323       .  A
C384        C385   1.407       .  A
C384        H395   1.082       .  S
C385        C394   1.367       .  A
C385        C386   1.380       .  A
C386        C387   1.404       .  A
C386        O392   1.320       .  A
C387        C388   1.403       .  A
C387        H396   1.082       .  S
C388        C391   1.363       .  A
O389        C390   1.334       .  A
C390        C391   1.391       .  A
C391        H397   1.083       .  S
O392        C393   1.331       .  A
C393        C394   1.393       .  A
C394        H398   1.082       .  S
C399        C404   1.381       .  A
C399        C400   1.406       .  A
C399        O405   1.320       .  A
C400        C401   1.405       .  A
C400        H411   1.082       .  S
C401        C410   1.365       .  A
C401        C402   1.380       .  A
C402        C403   1.396   1_655  A
C402        O408   1.312   1_655  A
C403        C404   1.395   1_455  A
C403        H412   1.082       .  S
C404        C407   1.354   1_655  A
O405        C406   1.332       .  A
C406        C407   1.387   1_655  A
C407        H413   1.083       .  S
O408        C409   1.327   1_455  A
C409        C410   1.394       .  A
C410        H414   1.082       .  S
C415        C420   1.381       .  A
C415        C416   1.402   1_655  A
C415        O421   1.317   1_655  A
C416        C417   1.401   1_455  A
C416        H427   1.082       .  S
C417        C426   1.360       .  A
C417        C418   1.381       .  A
C418        C419   1.398       .  A
C418        O424   1.314       .  A
C419        C420   1.397       .  A
C419        H428   1.082       .  S
C420        C423   1.355       .  A
O421        C422   1.330   1_455  A
C422        C423   1.389       .  A
C423        H429   1.083       .  S
O424        C425   1.328       .  A
C425        C426   1.390       .  A
C426        H430   1.082   1_655  S
C431        C436   1.378   1_545  A
C431        C432   1.410       .  A
C431        O437   1.327       .  A
C432        C433   1.411       .  A
C432        H443   1.082       .  S
C433        C442   1.368       .  A
C433        C434   1.378       .  A
C434        C435   1.414   1_545  A
C434        O440   1.331       .  A
C435        C436   1.414       .  A
C435        H444   1.082       .  S
C436        C439   1.372       .  A
O437        C438   1.336   1_545  A
C438        C439   1.399       .  A
C439        H445   1.082       .  S
O440        C441   1.338       .  A
C441        C442   1.398       .  A
C442        H446   1.082       .  S
C447        C452   1.379       .  A
C447        C448   1.413   1_565  A
C447        O453   1.330       .  A
C448        C449   1.413   1_545  A
C448        H459   1.082       .  S
C449        C458   1.371   1_565  A
C449        C450   1.379       .  A
C450        C451   1.408       .  A
C450        O456   1.326       .  A
C451        C452   1.409       .  A
C451        H460   1.082       .  S
C452        C455   1.367       .  A
O453        C454   1.337       .  A
C454        C455   1.396       .  A
C455        H461   1.082       .  S
O456        C457   1.335       .  A
C457        C458   1.398   1_565  A
C458        H462   1.082       .  S
C463        C468   1.382   1_455  A
C463        C464   1.396       .  A
C463        O469   1.314   1_455  A
C464        C465   1.396       .  A
C464        H475   1.082       .  S
C465        C474   1.352       .  A
C465        C466   1.382   1_455  A
C466        C467   1.402       .  A
C466        O472   1.319       .  A
C467        C468   1.402       .  A
C467        H476   1.082       .  S
C468        C471   1.359       .  A
O469        C470   1.327       .  A
C470        C471   1.391       .  A
C471        H477   1.083       .  S
O472        C473   1.330   1_655  A
C473        C474   1.385       .  A
C474        H478   1.082       .  S
C479        C484   1.381       .  A
C479        C480   1.400       .  A
C479        O485   1.315       .  A
C480        C481   1.398       .  A
C480        H491   1.082       .  S
C481        C490   1.358       .  A
C481        C482   1.381       .  A
C482        C483   1.405   1_455  A
C482        O488   1.319       .  A
C483        C484   1.404   1_655  A
C483        H492   1.082       .  S
C484        C487   1.365   1_455  A
O485        C486   1.329       .  A
C486        C487   1.393   1_455  A
C487        H493   1.082       .  S
O488        C489   1.331       .  A
C489        C490   1.389       .  A
C490        H494   1.082       .  S
