geometry optimzed in LAMMPS
_audit_creation_date              2020-12-01 
_audit_creation_method            'lammps2cif' 
_symmetry_space_group_name_H-M    'P1' 
_symmetry_Int_Tables_number       1 
_symmetry_cell_setting            triclinic 
loop_ 
_symmetry_equiv_pos_as_xyz 
  x,y,z 
_cell_length_a                    85.76557692 
_cell_length_b                    84.59809441298734 
_cell_length_c                    66.87231666726332 
_cell_angle_alpha                 90.08584030873423 
_cell_angle_beta                  89.93661978707202 
_cell_angle_gamma                 89.93178768646567 
loop_ 
_atom_site_label 
_atom_site_type_symbol 
_atom_site_fract_x 
_atom_site_fract_y 
_atom_site_fract_z 
_atom_site_charge 
N1          N  0.70272659  0.85683108  0.65899171    -0.27200
N2          N  0.70235708  0.85530756  0.63932690    -0.35100
C3          C  0.68964902  0.86266538  0.63222909     0.01100
C4          C  0.68148226  0.86920791  0.64813883     0.07100
C5          C  0.69020640  0.86522397  0.66490313    -0.06000
H6          H  0.68679993  0.86328961  0.61651488     0.07800
H7          H  0.68779677  0.86824263  0.68031010     0.09000
Cu8        Cu  0.71899067  0.84364982  0.62233808     0.44200
Cu9        Cu  0.72005024  0.84727266  0.67702111     0.42000
Cu10       Cu  0.74950640  0.82532228  0.64920128     0.43900
N11         N  0.73716487  0.83189141  0.60833962    -0.34600
N12         N  0.74864317  0.82525287  0.61841803    -0.28900
C13         C  0.75916957  0.81936981  0.60550175    -0.05000
C14         C  0.75404107  0.82241631  0.58624637     0.07200
C15         C  0.73999915  0.83034795  0.58865898     0.01000
H16         H  0.76986099  0.81353719  0.60987881     0.08700
H17         H  0.73269327  0.83523536  0.57702733     0.07800
N18         N  0.74824732  0.82623137  0.67993922    -0.36100
N19         N  0.73779945  0.83429278  0.69032420    -0.28300
C20         C  0.74025012  0.83170609  0.70994166    -0.03500
C21         C  0.75277452  0.82141140  0.71188826     0.05100
C22         C  0.75753305  0.81829681  0.69251610     0.03200
H23         H  0.73311037  0.83654609  0.72180941     0.08300
H24         H  0.76702200  0.81075252  0.68774104     0.07100
N25         N  0.57990070  0.96741456  0.62774805    -0.27200
N26         N  0.58077516  0.96898080  0.64737656    -0.35100
C27         C  0.58956737  0.95733460  0.65491548     0.01100
C28         C  0.59465893  0.94778867  0.63938109     0.07100
C29         C  0.58821727  0.95457740  0.62231048    -0.06000
H30         H  0.59241962  0.95639276  0.67059933     0.07800
H31         H  0.58984153  0.95085508  0.60697889     0.09000
Cu32       Cu  0.57151735  0.98732545  0.66380333     0.44200
Cu33       Cu  0.56845385  0.98366958  0.60937110     0.42000
Cu34       Cu  0.55663681  0.01926027  0.63640625     0.43900
N35         N  0.56279244  0.00731125  0.67736364    -0.34600
N36         N  0.55756554  0.01943656  0.66698240    -0.28900
C37         C  0.55268404  0.03077189  0.67955674    -0.05000
C38         C  0.55492344  0.02546022  0.69889046     0.07200
C39         C  0.56136277  0.01051671  0.69694262     0.01000
H40         H  0.54762445  0.04189210  0.67490537     0.08700
H41         H  0.56490776  0.00261419  0.70880438     0.07800
N42         N  0.55337723  0.01586416  0.60640089    -0.36100
N43         N  0.55723066  0.00300525  0.59630211    -0.28300
C44         C  0.55251159  0.00480138  0.57723468    -0.03500
C45         C  0.54530841  0.01948648  0.57539726     0.05100
C46         C  0.54617417  0.02609453  0.59426046     0.03200
H47         H  0.55402226  0.99594046  0.56572603     0.08300
H48         H  0.54184573  0.03748587  0.59907255     0.07100
N49         N  0.98865642  0.94626518  0.39689789    -0.27200
N50         N  0.98907695  0.94572552  0.37713929    -0.35100
C51         C  0.98079718  0.93318219  0.37082578     0.01100
C52         C  0.97474717  0.92538569  0.38736068     0.07100
C53         C  0.98009848  0.93407704  0.40361817    -0.06000
H54         H  0.97878183  0.93047215  0.35524213     0.07800
H55         H  0.97751204  0.93217297  0.41924833     0.09000
Cu56       Cu  0.99886320  0.96307079  0.35913653     0.44200
Cu57       Cu  0.99828871  0.96418770  0.41434556     0.42000
Cu58       Cu  0.01136787  0.99749356  0.38635938     0.43900
N59         N  0.00568192  0.98390817  0.34532233    -0.34600
N60         N  0.00996777  0.99654205  0.35553624    -0.28900
C61         C  0.01241933  0.00854407  0.34283808    -0.05000
C62         C  0.00946618  0.00333475  0.32355034     0.07200
C63         C  0.00529193  0.98756638  0.32573376     0.01000
H64         H  0.01583556  0.02027655  0.34750997     0.08700
H65         H  0.00154283  0.97952615  0.31411193     0.07800
N66         N  0.01280507  0.99632467  0.41716722    -0.36100
N67         N  0.00817954  0.98402389  0.42772763    -0.28300
C68         C  0.01135047  0.98673144  0.44717182    -0.03500
C69         C  0.01833079  0.00151089  0.44891562     0.05100
C70         C  0.01899305  0.00717496  0.42947273     0.03200
H71         H  0.00883482  0.97847671  0.45907003     0.08300
H72         H  0.02398966  0.01818800  0.42440037     0.07100
N73         N  0.86851210  0.83057139  0.38096375    -0.27200
N74         N  0.86783320  0.83262638  0.40053603    -0.35100
C75         C  0.88013857  0.84124077  0.40642664     0.01100
C76         C  0.88914910  0.84491353  0.38980658     0.07100
C77         C  0.88134232  0.83786801  0.37389867    -0.06000
H78         H  0.88197425  0.84495059  0.42171127     0.07800
H79         H  0.88447922  0.83828211  0.35824790     0.09000
Cu80       Cu  0.84973672  0.82489084  0.41866400     0.44200
Cu81       Cu  0.85135737  0.81871034  0.36481246     0.42000
Cu82       Cu  0.81769295  0.80618436  0.39446806     0.43900
N83         N  0.82976448  0.81787946  0.43375391    -0.34600
N84         N  0.81772480  0.81133853  0.42467817    -0.28900
C85         C  0.80636036  0.80872681  0.43814190    -0.05000
C86         C  0.81154585  0.81376363  0.45671016     0.07200
C87         C  0.82646097  0.81949594  0.45330740     0.01000
H88         H  0.79522468  0.80341340  0.43464642     0.08700
H89         H  0.83423441  0.82480116  0.46412459     0.07800
N90         N  0.82028858  0.80184219  0.36423480    -0.36100
N91         N  0.83220667  0.80664152  0.35324658    -0.28300
C92         C  0.82952732  0.80267900  0.33404634    -0.03500
C93         C  0.81534238  0.79486159  0.33301684     0.05100
C94         C  0.80987213  0.79454257  0.35244725     0.03200
H95         H  0.83723636  0.80547833  0.32173753     0.08300
H96         H  0.79878873  0.78997343  0.35756297     0.07100
N97         N  0.84097802  0.21623410  0.16800460    -0.27200
N98         N  0.84094379  0.21826102  0.14839020    -0.35100
C99         C  0.85366964  0.21141647  0.14050509     0.01100
C100        C  0.86231335  0.20461470  0.15574478     0.07100
C101        C  0.85385813  0.20797964  0.17302846    -0.06000
H102        H  0.85626941  0.21140506  0.12469056     0.07800
H103        H  0.85666309  0.20447881  0.18814567     0.09000
Cu104      Cu  0.82366627  0.22947395  0.13204049     0.44200
Cu105      Cu  0.82320388  0.22436360  0.18700119     0.42000
Cu106      Cu  0.79043433  0.24073958  0.15943234     0.43900
N107        N  0.80443042  0.23970680  0.11855302    -0.34600
N108        N  0.79190583  0.24363449  0.12888504    -0.28900
C109        C  0.78120806  0.24977835  0.11647580    -0.05000
C110        C  0.78729373  0.24977177  0.09725582     0.07200
C111        C  0.80208848  0.24327351  0.09918665     0.01000
H112        H  0.76992621  0.25409980  0.12123981     0.08700
H113        H  0.81046805  0.24107139  0.08740722     0.07800
N114        N  0.79129032  0.23913758  0.19017312    -0.36100
N115        N  0.80310075  0.23351900  0.20066227    -0.28300
C116        C  0.79974426  0.23521609  0.22029281    -0.03500
C117        C  0.78511822  0.24229873  0.22214876     0.05100
C118        C  0.78021917  0.24447853  0.20260926     0.03200
H119        H  0.80752636  0.23182304  0.23225596     0.08300
H120        H  0.76947098  0.24977361  0.19750434     0.07100
N121        N  0.97601820  0.12144219  0.12844231    -0.27200
N122        N  0.97877468  0.12284664  0.14780596    -0.35100
C123        C  0.96919080  0.13383301  0.15555689     0.01100
C124        C  0.95972412  0.13967020  0.14045799     0.07100
C125        C  0.96452962  0.13154460  0.12341198    -0.06000
H126        H  0.96865286  0.13661724  0.17131778     0.07800
H127        H  0.95949464  0.13219976  0.10862461     0.09000
Cu128      Cu  0.99302150  0.10788026  0.16410867     0.44200
Cu129      Cu  0.98660470  0.10444733  0.11023760     0.42000
Cu130      Cu  0.01024877  0.07596012  0.13702415     0.43900
N131        N  0.00312219  0.08851984  0.17792055    -0.34600
N132        N  0.00936512  0.07671059  0.16776706    -0.28900
C133        C  0.01288972  0.06491839  0.18038637    -0.05000
C134        C  0.00861985  0.06946493  0.19951906     0.07200
C135        C  0.00255138  0.08457882  0.19738556     0.01000
H136        H  0.01759307  0.05362551  0.17575274     0.08700
H137        H  0.99714658  0.09175440  0.20886591     0.07800
N138        N  0.00646130  0.07509612  0.10664811    -0.36100
N139        N  0.99794172  0.08541431  0.09661329    -0.28300
C140        C  0.99757879  0.08100240  0.07725098    -0.03500
C141        C  0.00612422  0.06715226  0.07516455     0.05100
C142        C  0.01157065  0.06380949  0.09412691     0.03200
H143        H  0.99129275  0.08722678  0.06566102     0.08300
H144        H  0.01877160  0.05391437  0.09856678     0.07100
N145        N  0.67870796  0.25091422  0.89494258    -0.27200
N146        N  0.67899174  0.24997508  0.91462974    -0.35100
C147        C  0.66728367  0.24062749  0.92081526     0.01100
C148        C  0.65915442  0.23533359  0.90416349     0.07100
C149        C  0.66681169  0.24217989  0.88802238    -0.06000
H150        H  0.66515913  0.23769832  0.93630670     0.07800
H151        H  0.66422618  0.24076863  0.87231043     0.09000
Cu152      Cu  0.69601910  0.26051937  0.93185668     0.44200
Cu153      Cu  0.69493081  0.26354780  0.87845168     0.42000
Cu154      Cu  0.72705436  0.28122521  0.90684658     0.43900
N155        N  0.71529741  0.26958218  0.94629187    -0.34600
N156        N  0.72699235  0.27686143  0.93735338    -0.28900
C157        C  0.73810293  0.28004442  0.95102784    -0.05000
C158        C  0.73300076  0.27459920  0.96948433     0.07200
C159        C  0.71851890  0.26802674  0.96577746     0.01000
H160        H  0.74911517  0.28568220  0.94770011     0.08700
H161        H  0.71108660  0.26188065  0.97626735     0.07800
N162        N  0.72432379  0.28301049  0.87613177    -0.36100
N163        N  0.71277564  0.27668314  0.86577250    -0.28300
C164        C  0.71510044  0.27955919  0.84620110    -0.03500
C165        C  0.72885831  0.28797235  0.84414911     0.05100
C166        C  0.73429623  0.29000431  0.86346766     0.03200
H167        H  0.70761720  0.27532018  0.83434628     0.08300
H168        H  0.74486759  0.29593122  0.86807278     0.07100
N169        N  0.55658757  0.13608812  0.90536951    -0.27200
N170        N  0.55775065  0.13658429  0.88569261    -0.35100
C171        C  0.56774297  0.14804409  0.88048861     0.01100
C172        C  0.57327586  0.15523695  0.89772081     0.07100
C173        C  0.56585705  0.14731024  0.91323890    -0.06000
H174        H  0.57113253  0.15040504  0.86521561     0.07800
H175        H  0.56731437  0.14921806  0.92911298     0.09000
Cu176      Cu  0.54741888  0.12062713  0.86654786     0.44200
Cu177      Cu  0.54329549  0.11934365  0.92038319     0.42000
Cu178      Cu  0.52663656  0.08850433  0.88864545     0.43900
N179        N  0.53971324  0.10138570  0.85046877    -0.34600
N180        N  0.53234235  0.08930129  0.85858582    -0.28900
C181        C  0.53028430  0.07806147  0.84459701    -0.05000
C182        C  0.53666620  0.08339415  0.82677631     0.07200
C183        C  0.54251184  0.09825213  0.83112523     0.01000
H184        H  0.52480878  0.06676255  0.84735925     0.08700
H185        H  0.54900363  0.10595404  0.82127380     0.07800
N186        N  0.52334251  0.08996456  0.91927712    -0.36100
N187        N  0.52942366  0.10099463  0.93089561    -0.28300
C188        C  0.52514932  0.09818464  0.94993008    -0.03500
C189        C  0.51588745  0.08471418  0.95036167     0.05100
C190        C  0.51504908  0.07989444  0.93055186     0.03200
H191        H  0.52869577  0.10540251  0.96247505     0.08300
H192        H  0.50890288  0.06979772  0.92457093     0.07100
N193        N  0.44251297  0.97419932  0.12190506    -0.27200
N194        N  0.44563316  0.97190318  0.14102477    -0.35100
C195        C  0.43645782  0.96035083  0.14813138     0.01100
C196        C  0.42698876  0.95500443  0.13278008     0.07100
C197        C  0.43122484  0.96408438  0.11633589    -0.06000
H198        H  0.43668676  0.95629244  0.16344884     0.07800
H199        H  0.42628786  0.96367356  0.10147775     0.09000
Cu200      Cu  0.46137525  0.98504178  0.15731573     0.44200
Cu201      Cu  0.45326281  0.99149632  0.10453374     0.42000
Cu202      Cu  0.47890795  0.01778814  0.13265071     0.43900
N203        N  0.47535375  0.00115052  0.17186728    -0.34600
N204        N  0.48172740  0.01342495  0.16290431    -0.28900
C205        C  0.48897928  0.02237406  0.17667060    -0.05000
C206        C  0.48703855  0.01538749  0.19532209     0.07200
C207        C  0.47832381  0.00190374  0.19153969     0.01000
H208        H  0.49471842  0.03342277  0.17330128     0.08700
H209        H  0.47374392  0.99358864  0.20229532     0.07800
N210        N  0.47443342  0.01991125  0.10234147    -0.36100
N211        N  0.46534468  0.01038140  0.09187786    -0.28300
C212        C  0.46544030  0.01509470  0.07262662    -0.03500
C213        C  0.47497603  0.02829848  0.07095962     0.05100
C214        C  0.48045136  0.03091818  0.09015296     0.03200
H215        H  0.45899601  0.00934321  0.06078436     0.08300
H216        H  0.48853628  0.03995266  0.09496176     0.07100
N217        N  0.32941337  0.85145234  0.15000830    -0.27200
N218        N  0.33050544  0.84981052  0.13039343    -0.35100
C219        C  0.34100251  0.86016644  0.12331714     0.01100
C220        C  0.34689547  0.86886982  0.13919302     0.07100
C221        C  0.33923760  0.86294005  0.15589670    -0.06000
H222        H  0.34397787  0.86123799  0.10766942     0.07800
H223        H  0.34048102  0.86678167  0.17123398     0.09000
Cu224      Cu  0.31727617  0.83432737  0.11349784     0.44200
Cu225      Cu  0.31444172  0.83827713  0.16806231     0.42000
Cu226      Cu  0.28892601  0.81217375  0.14110908     0.43900
N227        N  0.30075579  0.82003260  0.10011174    -0.34600
N228        N  0.29010739  0.81219687  0.11033848    -0.28900
C229        C  0.28011344  0.80534739  0.09755971    -0.05000
C230        C  0.28470613  0.80901422  0.07826963     0.07200
C231        C  0.29789711  0.81830363  0.08048353     0.01000
H232        H  0.27002688  0.79856797  0.10208249     0.08700
H233        H  0.30440856  0.82416283  0.06878803     0.07800
N234        N  0.28916215  0.81385956  0.17185556    -0.36100
N235        N  0.29836080  0.82344003  0.18202027    -0.28300
C236        C  0.29508194  0.82197236  0.20164629    -0.03500
C237        C  0.28320786  0.81090247  0.20390882     0.05100
C238        C  0.27984452  0.80605946  0.18457597     0.03200
H239        H  0.30081371  0.82865024  0.21330138     0.08300
H240        H  0.27096966  0.79780915  0.17984692     0.07100
N241        N  0.06465662  0.94897818  0.90350945    -0.27200
N242        N  0.06447907  0.94883109  0.88376130    -0.35100
C243        C  0.07265617  0.93639750  0.87709110     0.01100
C244        C  0.07840082  0.92812368  0.89335643     0.07100
C245        C  0.07302549  0.93648991  0.90992881    -0.06000
H246        H  0.07471133  0.93407864  0.86141786     0.07800
H247        H  0.07534199  0.93401659  0.92549863     0.09000
Cu248      Cu  0.05505718  0.96619500  0.86593765     0.44200
Cu249      Cu  0.05454878  0.96700177  0.92041489     0.42000
Cu250      Cu  0.04349993  0.00133682  0.89057636     0.43900
N251        N  0.04892788  0.98637348  0.85069221    -0.34600
N252        N  0.04512281  0.99961613  0.85992292    -0.28900
C253        C  0.04303996  0.01105664  0.84630557    -0.05000
C254        C  0.04566836  0.00467262  0.82751409     0.07200
C255        C  0.04933449  0.98895390  0.83088966     0.01000
H256        H  0.04001988  0.02314465  0.84991957     0.08700
H257        H  0.05275690  0.98020660  0.81991030     0.07800
N258        N  0.04092487  0.99993057  0.92116419    -0.36100
N259        N  0.04464185  0.98752652  0.93216576    -0.28300
C260        C  0.04116860  0.99073055  0.95139268    -0.03500
C261        C  0.03499453  0.00591264  0.95252193     0.05100
C262        C  0.03503666  0.01129172  0.93297120     0.03200
H263        H  0.04324648  0.98264982  0.96361616     0.08300
H264        H  0.03100403  0.02259405  0.92750157     0.07100
N265        N  0.17492212  0.82417398  0.87563975    -0.27200
N266        N  0.17342704  0.82182829  0.89508166    -0.35100
C267        C  0.16176878  0.83081999  0.90214222     0.01100
C268        C  0.15552591  0.83937533  0.88645414     0.07100
C269        C  0.16413289  0.83476438  0.86981750    -0.06000
H270        H  0.15853509  0.83141547  0.91775540     0.07800
H271        H  0.16315866  0.83927513  0.85474755     0.09000
Cu272      Cu  0.18850935  0.80877860  0.91235875     0.44200
Cu273      Cu  0.19238934  0.81390358  0.85828414     0.42000
Cu274      Cu  0.22217792  0.79414372  0.88738732     0.43900
N275        N  0.20789217  0.80085901  0.92741025    -0.34600
N276        N  0.22057230  0.79591915  0.91811131    -0.28900
C277        C  0.23193400  0.79367898  0.93160072    -0.05000
C278        C  0.22610544  0.79741862  0.95035328     0.07200
C279        C  0.21077446  0.80185658  0.94710949     0.01000
H280        H  0.24368231  0.79005525  0.92787582     0.08700
H281        H  0.20261709  0.80645381  0.95801770     0.07800
N282        N  0.22160119  0.79414577  0.85650946    -0.36100
N283        N  0.21100937  0.80159205  0.84569109    -0.28300
C284        C  0.21425278  0.79932613  0.82617884    -0.03500
C285        C  0.22743884  0.78986688  0.82471273     0.05100
C286        C  0.23174005  0.78685476  0.84427789     0.03200
H287        H  0.20735225  0.80398390  0.81400372     0.08300
H288        H  0.24164185  0.78002575  0.84934445     0.07100
N289        N  0.08592072  0.11339936  0.62337275    -0.27200
N290        N  0.08359704  0.11393556  0.64291277    -0.35100
C291        C  0.09060646  0.12674942  0.65053369     0.01100
C292        C  0.09781439  0.13487605  0.63517657     0.07100
C293        C  0.09453614  0.12606795  0.61808433    -0.06000
H294        H  0.09051824  0.12975499  0.66625312     0.07800
H295        H  0.09848989  0.12841432  0.60301666     0.09000
Cu296      Cu  0.07202566  0.09712705  0.65948638     0.44200
Cu297      Cu  0.07769424  0.09488645  0.60531769     0.42000
Cu298      Cu  0.05958385  0.06293313  0.63389552     0.43900
N299        N  0.06217993  0.07815071  0.67400770    -0.34600
N300        N  0.05761518  0.06534833  0.66443214    -0.28900
C301        C  0.05268401  0.05460431  0.67774625    -0.05000
C302        C  0.05431037  0.06091897  0.69679708     0.07200
C303        C  0.06034880  0.07594669  0.69374677     0.01000
H304        H  0.04866319  0.04292882  0.67370768     0.08700
H305        H  0.06381260  0.08446464  0.70494829     0.07800
N306        N  0.06183937  0.06289524  0.60322163    -0.36100
N307        N  0.06805674  0.07442884  0.59254519    -0.28300
C308        C  0.06656814  0.07075423  0.57300908    -0.03500
C309        C  0.05910904  0.05619688  0.57139459     0.05100
C310        C  0.05637007  0.05164139  0.59093436     0.03200
H311        H  0.07046063  0.07824650  0.56091084     0.08300
H312        H  0.05025720  0.04120756  0.59597637     0.07100
N313        N  0.19245273  0.23970451  0.65731548    -0.27200
N314        N  0.19231522  0.24058395  0.63760189    -0.35100
C315        C  0.18066098  0.23161796  0.63048938     0.01100
C316        C  0.17295276  0.22468901  0.64647909     0.07100
C317        C  0.18082678  0.23013799  0.66328244    -0.06000
H318        H  0.17834471  0.22998701  0.61473681     0.07800
H319        H  0.17852101  0.22721613  0.67873497     0.09000
Cu320      Cu  0.20826192  0.25332143  0.62096254     0.44200
Cu321      Cu  0.20897220  0.25095202  0.67501485     0.42000
Cu322      Cu  0.23898253  0.27263621  0.64794622     0.43900
N323        N  0.22588654  0.26594475  0.60726575    -0.34600
N324        N  0.23742576  0.27275318  0.61708839    -0.28900
C325        C  0.24768630  0.27867525  0.60385650    -0.05000
C326        C  0.24222987  0.27553827  0.58477354     0.07200
C327        C  0.22836192  0.26749223  0.58754508     0.01000
H328        H  0.25849656  0.28444008  0.60786254     0.08700
H329        H  0.22104906  0.26232941  0.57610107     0.07800
N330        N  0.23820230  0.27049092  0.67875177    -0.36100
N331        N  0.22732836  0.26273310  0.68872715    -0.28300
C332        C  0.23046333  0.26365804  0.70841958    -0.03500
C333        C  0.24402875  0.27235474  0.71094742     0.05100
C334        C  0.24853306  0.27649912  0.69175205     0.03200
H335        H  0.22347904  0.25818795  0.71996389     0.08300
H336        H  0.25852131  0.28349548  0.68742215     0.07100
N337        N  0.34086209  0.23424102  0.37846593    -0.27200
N338        N  0.34299529  0.23709889  0.39769479    -0.35100
C339        C  0.35504612  0.22839847  0.40430724     0.01100
C340        C  0.36087232  0.21955568  0.38848887     0.07100
C341        C  0.35154295  0.22364016  0.37232425    -0.06000
H342        H  0.35906524  0.22843545  0.41962067     0.07800
H343        H  0.35212209  0.21897666  0.35728362     0.09000
Cu344      Cu  0.32883182  0.25172499  0.41463052     0.44200
Cu345      Cu  0.32298867  0.24418608  0.36168250     0.42000
Cu346      Cu  0.29588168  0.26867253  0.38973541     0.43900
N347        N  0.31156083  0.26429235  0.42927945    -0.34600
N348        N  0.29939009  0.27046112  0.42008232    -0.28900
C349        C  0.28942411  0.27624728  0.43375389    -0.05000
C350        C  0.29559143  0.27354193  0.45258691     0.07200
C351        C  0.30970023  0.26599546  0.44910434     0.01000
H352        H  0.27823733  0.28141205  0.43015425     0.08700
H353        H  0.31758345  0.26114744  0.46012182     0.07800
N354        N  0.29366859  0.26373620  0.35973860    -0.36100
N355        N  0.30352508  0.25501661  0.34925754    -0.28300
C356        C  0.29873644  0.25465008  0.33009916    -0.03500
C357        C  0.28514006  0.26347301  0.32857567     0.05100
C358        C  0.28232951  0.26902548  0.34769572     0.03200
H359        H  0.30478152  0.24850546  0.31819727     0.08300
H360        H  0.27302833  0.27680850  0.35247868     0.07100
N361        N  0.46223194  0.11925316  0.40121384    -0.27200
N362        N  0.46298936  0.11969091  0.38147913    -0.35100
C363        C  0.45304055  0.13075630  0.37475755     0.01100
C364        C  0.44556849  0.13767487  0.39101505     0.07100
C365        C  0.45178971  0.13002136  0.40754153    -0.06000
H366        H  0.45123802  0.13325949  0.35908501     0.07800
H367        H  0.44877484  0.13180651  0.42308086     0.09000
Cu368      Cu  0.47629966  0.10437072  0.36409401     0.44200
Cu369      Cu  0.47457771  0.10349706  0.41890107     0.42000
Cu370      Cu  0.49358876  0.07247623  0.39081714     0.43900
N371        N  0.48713863  0.08535549  0.35010676    -0.34600
N372        N  0.49282519  0.07320460  0.36011296    -0.28900
C373        C  0.49743680  0.06196205  0.34717172    -0.05000
C374        C  0.49472183  0.06740716  0.32802537     0.07200
C375        C  0.48821656  0.08228855  0.33042163     0.01000
H376        H  0.50221086  0.05060993  0.35141621     0.08700
H377        H  0.48383637  0.08995013  0.31876218     0.07800
N378        N  0.49406119  0.07416762  0.42147609    -0.36100
N379        N  0.48728241  0.08543266  0.43204107    -0.28300
C380        C  0.49014176  0.08287818  0.45156573    -0.03500
C381        C  0.49919844  0.06930418  0.45330737     0.05100
C382        C  0.50139443  0.06419251  0.43380821     0.03200
H383        H  0.48594318  0.09040981  0.46348871     0.08300
H384        H  0.50789733  0.05402985  0.42865138     0.07100
N385        N  0.83906492  0.35149336  0.66954410    -0.27200
N386        N  0.84020931  0.34903355  0.65007146    -0.35100
C387        C  0.85287266  0.35653100  0.64311467     0.01100
C388        C  0.86007564  0.36418822  0.65891308     0.07100
C389        C  0.85099575  0.36063550  0.67547385    -0.06000
H390        H  0.85600282  0.35707329  0.62746302     0.07800
H391        H  0.85252994  0.36481357  0.69063023     0.09000
Cu392      Cu  0.82381256  0.33747582  0.63280590     0.44200
Cu393      Cu  0.82060403  0.34399659  0.68706594     0.42000
Cu394      Cu  0.78873952  0.32803353  0.65854434     0.43900
N395        N  0.80472559  0.32768928  0.61863494    -0.34600
N396        N  0.79175444  0.32433029  0.62833301    -0.28900
C397        C  0.78117430  0.31878897  0.61537521    -0.05000
C398        C  0.78771007  0.31874425  0.59638634     0.07200
C399        C  0.80273895  0.32444320  0.59910087     0.01000
H400        H  0.76951363  0.31531783  0.61962570     0.08700
H401        H  0.81143780  0.32660829  0.58772005     0.07800
N402        N  0.78839809  0.33039310  0.68918461    -0.36100
N403        N  0.80016359  0.33585556  0.69985945    -0.28300
C404        C  0.79680401  0.33415152  0.71938346    -0.03500
C405        C  0.78218587  0.32725072  0.72101037     0.05100
C406        C  0.77721890  0.32514489  0.70151972     0.03200
H407        H  0.80464850  0.33726879  0.73140701     0.08300
H408        H  0.76668646  0.31933014  0.69654773     0.07100
N409        N  0.95954412  0.46381402  0.63361020    -0.27200
N410        N  0.96092664  0.46406563  0.65330549    -0.35100
C411        C  0.95140577  0.45320150  0.66127467     0.01100
C412        C  0.94364571  0.44562109  0.64592539     0.07100
C413        C  0.94914265  0.45259791  0.62854835    -0.06000
H414        H  0.95022978  0.45106293  0.67714757     0.07800
H415        H  0.94552213  0.45006739  0.61338955     0.09000
Cu416      Cu  0.97494954  0.47927279  0.66932537     0.44200
Cu417      Cu  0.97118415  0.47928017  0.61460265     0.42000
Cu418      Cu  0.99561856  0.50763195  0.64095411     0.43900
N419        N  0.98805107  0.49683841  0.68250596    -0.34600
N420        N  0.99549445  0.50760397  0.67191559    -0.28900
C421        C  0.00161711  0.51839469  0.68439027    -0.05000
C422        C  0.99788099  0.51417123  0.70383772     0.07200
C423        C  0.98932434  0.50036755  0.70204723     0.01000
H424        H  0.00794929  0.52876576  0.67957567     0.08700
H425        H  0.98367793  0.49386861  0.71393960     0.07800
N426        N  0.99330238  0.50668993  0.61015369    -0.36100
N427        N  0.98426835  0.49666424  0.60038601    -0.28300
C428        C  0.98510284  0.49987828  0.58067942    -0.03500
C429        C  0.99524066  0.51248439  0.57793953     0.05100
C430        C  0.00016928  0.51643313  0.59701492     0.03200
H431        H  0.97882429  0.49346431  0.56924324     0.08300
H432        H  0.00789064  0.52597034  0.60121361     0.07100
N433        N  0.67326285  0.31248921  0.39363813    -0.27200
N434        N  0.67398352  0.31479998  0.41315314    -0.35100
C435        C  0.66182312  0.32372177  0.41897668     0.01100
C436        C  0.65290545  0.32737232  0.40232756     0.07100
C437        C  0.66054345  0.31991875  0.38652605    -0.06000
H438        H  0.66021727  0.32799377  0.43408294     0.07800
H439        H  0.65753107  0.32036253  0.37084863     0.09000
Cu440      Cu  0.69241551  0.30759962  0.43077400     0.44200
Cu441      Cu  0.69058892  0.30070678  0.37741735     0.42000
Cu442      Cu  0.72404487  0.28741333  0.40698781     0.43900
N443        N  0.71271130  0.30141095  0.44538971    -0.34600
N444        N  0.72455359  0.29414331  0.43670749    -0.28900
C445        C  0.73626228  0.29268955  0.44998236    -0.05000
C446        C  0.73143847  0.29928382  0.46793688     0.07200
C447        C  0.71645151  0.30468720  0.46440760     0.01000
H448        H  0.74742377  0.28728284  0.44676012     0.08700
H449        H  0.70892727  0.31096141  0.47471208     0.07800
N450        N  0.72175596  0.28383788  0.37653910    -0.36100
N451        N  0.70990691  0.28880893  0.36558626    -0.28300
C452        C  0.71276597  0.28515811  0.34630385    -0.03500
C453        C  0.72711209  0.27749014  0.34506070     0.05100
C454        C  0.73236858  0.27690457  0.36463487     0.03200
H455        H  0.70496755  0.28801192  0.33413968     0.08300
H456        H  0.74332481  0.27220498  0.36996292     0.07100
N457        N  0.55910345  0.43531749  0.40280357    -0.27200
N458        N  0.56101980  0.43543729  0.38322188    -0.35100
C459        C  0.57029234  0.42335311  0.37790670     0.01100
C460        C  0.57454357  0.41509532  0.39498616     0.07100
C461        C  0.56713941  0.42308823  0.41051143    -0.06000
H462        H  0.57400156  0.42118377  0.36270207     0.07800
H463        H  0.56779693  0.42053013  0.42631927     0.09000
Cu464      Cu  0.55251419  0.45296553  0.36472790     0.44200
Cu465      Cu  0.54669878  0.45270034  0.41793789     0.42000
Cu466      Cu  0.53405685  0.48652895  0.38840645     0.43900
N467        N  0.54654505  0.47342198  0.34976029    -0.34600
N468        N  0.54006258  0.48583316  0.35844046    -0.28900
C469        C  0.53905096  0.49763598  0.34507225    -0.05000
C470        C  0.54518267  0.49238019  0.32706104     0.07200
C471        C  0.54977598  0.47694137  0.33063146     0.01000
H472        H  0.53441729  0.50924338  0.34839361     0.08700
H473        H  0.55568248  0.46903091  0.32039727     0.07800
N474        N  0.53097659  0.48471687  0.41902483    -0.36100
N475        N  0.53554483  0.47243019  0.42969601    -0.28300
C476        C  0.53249666  0.47526104  0.44907624    -0.03500
C477        C  0.52570337  0.49011693  0.45083090     0.05100
C478        C  0.52490684  0.49569661  0.43134177     0.03200
H479        H  0.53531295  0.46708946  0.46094289     0.08300
H480        H  0.52055555  0.50701976  0.42635881     0.07100
N481        N  0.69683379  0.73668323  0.16144511    -0.27200
N482        N  0.69570990  0.73932509  0.14201143    -0.35100
C483        C  0.68517763  0.72940524  0.13411652     0.01100
C484        C  0.67931612  0.72001008  0.14925861     0.07100
C485        C  0.68695370  0.72502684  0.16640180    -0.06000
H486        H  0.68235036  0.72890443  0.11837744     0.07800
H487        H  0.68598463  0.72015079  0.18128498     0.09000
Cu488      Cu  0.70959606  0.75449882  0.12583831     0.44200
Cu489      Cu  0.71282602  0.74740213  0.18040231     0.42000
Cu490      Cu  0.74180607  0.76895052  0.15252567     0.43900
N491        N  0.72802324  0.76550306  0.11190945    -0.34600
N492        N  0.74037723  0.77034601  0.12190122    -0.28900
C493        C  0.75159550  0.77448276  0.10891537    -0.05000
C494        C  0.74594411  0.77219415  0.08976711     0.07200
C495        C  0.73092275  0.76656357  0.09222443     0.01000
H496        H  0.76321888  0.77813938  0.11313440     0.08700
H497        H  0.72318395  0.76230404  0.08064873     0.07800
N498        N  0.74229899  0.76608870  0.18303272    -0.36100
N499        N  0.73191045  0.75824178  0.19368321    -0.28300
C500        C  0.73627195  0.75857894  0.21306018    -0.03500
C501        C  0.75002862  0.76717837  0.21450873     0.05100
C502        C  0.75343154  0.77164319  0.19511529     0.03200
H503        H  0.72987320  0.75306607  0.22512059     0.08300
H504        H  0.76343920  0.77822718  0.18991455     0.07100
N505        N  0.59469485  0.60653434  0.12878323    -0.27200
N506        N  0.59329604  0.60695172  0.14845525    -0.35100
C507        C  0.60048105  0.61987468  0.15542796     0.01100
C508        C  0.60677512  0.62809338  0.13941693     0.07100
C509        C  0.60283383  0.61921732  0.12272443    -0.06000
H510        H  0.60118505  0.62277209  0.17113912     0.07800
H511        H  0.60567679  0.62163594  0.10727860     0.09000
Cu512      Cu  0.58229447  0.59013838  0.16585956     0.44200
Cu513      Cu  0.58522313  0.58919246  0.11085348     0.42000
Cu514      Cu  0.56333314  0.56014440  0.13904745     0.43900
N515        N  0.57158012  0.57130427  0.17989133    -0.34600
N516        N  0.56473801  0.55995528  0.16962234    -0.28900
C517        C  0.55954793  0.54881994  0.18221736    -0.05000
C518        C  0.56323965  0.55342257  0.20148164     0.07200
C519        C  0.57083090  0.56779308  0.19947204     0.01000
H520        H  0.55357372  0.53816651  0.17761994     0.08700
H521        H  0.57586519  0.57491202  0.21125445     0.07800
N522        N  0.56341027  0.56170766  0.10849001    -0.36100
N523        N  0.57161317  0.57192747  0.09793631    -0.28300
C524        C  0.56901119  0.56932396  0.07839142    -0.03500
C525        C  0.55858417  0.55689703  0.07671075     0.05100
C526        C  0.55534395  0.55238496  0.09610920     0.03200
H527        H  0.57420264  0.57609597  0.06640803     0.08300
H528        H  0.54795420  0.54279637  0.10102454     0.07100
N529        N  0.85675268  0.74431086  0.88323127    -0.27200
N530        N  0.85726938  0.74416987  0.90297405    -0.35100
C531        C  0.86959426  0.73562270  0.90891946     0.01100
C532        C  0.87730343  0.72998282  0.89214222     0.07100
C533        C  0.86880177  0.73580811  0.87608673    -0.06000
H534        H  0.87220898  0.73313048  0.92440664     0.07800
H535        H  0.87090171  0.73373449  0.86035589     0.09000
Cu536      Cu  0.84046906  0.75378056  0.92146713     0.44200
Cu537      Cu  0.83902248  0.75496620  0.86698306     0.42000
Cu538      Cu  0.80748409  0.77078106  0.89708357     0.43900
N539        N  0.82095326  0.76149821  0.93668282    -0.34600
N540        N  0.80873810  0.76764131  0.92758521    -0.28900
C541        C  0.79769468  0.77092295  0.94119095    -0.05000
C542        C  0.80318765  0.76661257  0.95991735     0.07200
C543        C  0.81803783  0.76066822  0.95639244     0.01000
H544        H  0.78650395  0.77602298  0.93750887     0.08700
H545        H  0.82610384  0.75582248  0.96717977     0.07800
N546        N  0.80830644  0.77224199  0.86634445    -0.36100
N547        N  0.81960841  0.76625922  0.85520992    -0.28300
C548        C  0.81642655  0.76914017  0.83586561    -0.03500
C549        C  0.80251644  0.77745747  0.83485472     0.05100
C550        C  0.79772649  0.77919938  0.85447958     0.03200
H551        H  0.82388529  0.76575085  0.82352459     0.08300
H552        H  0.78727640  0.78501178  0.85981570     0.07100
N553        N  0.97964495  0.63120155  0.90230204    -0.27200
N554        N  0.98040201  0.63172364  0.88256629    -0.35100
C555        C  0.97087854  0.64319939  0.87595158     0.01100
C556        C  0.96369746  0.65026998  0.89227339     0.07100
C557        C  0.96964474  0.64235684  0.90874217    -0.06000
H558        H  0.96905071  0.64583174  0.86031427     0.07800
H559        H  0.96641990  0.64400630  0.92424187     0.09000
Cu560      Cu  0.99278283  0.61581146  0.86495953     0.44200
Cu561      Cu  0.99070719  0.61430789  0.91967253     0.42000
Cu562      Cu  0.00964809  0.58344041  0.89125639     0.43900
N563        N  0.00311957  0.59665008  0.85069380    -0.34600
N564        N  0.00918455  0.58465375  0.86060584    -0.28900
C565        C  0.01313559  0.57316005  0.84770345    -0.05000
C566        C  0.00934259  0.57809436  0.82859841     0.07200
C567        C  0.00310778  0.59312774  0.83107697     0.01000
H568        H  0.01772212  0.56177387  0.85210847     0.08700
H569        H  0.99787143  0.60047611  0.81968554     0.07800
N570        N  0.00785727  0.58339487  0.92186532    -0.36100
N571        N  0.00108828  0.59464814  0.93246666    -0.28300
C572        C  0.00175881  0.59073024  0.95191890    -0.03500
C573        C  0.00932236  0.57625779  0.95359451     0.05100
C574        C  0.01298024  0.57202368  0.93414581     0.03200
H575        H  0.99701360  0.59792333  0.96383884     0.08300
H576        H  0.01873684  0.56137821  0.92905908     0.07100
N577        N  0.33840158  0.71516931  0.65622722    -0.27200
N578        N  0.33924273  0.71532797  0.63648561    -0.35100
C579        C  0.35092717  0.70588812  0.63050381     0.01100
C580        C  0.35791104  0.69928649  0.64719330     0.07100
C581        C  0.34961615  0.70549102  0.66329405    -0.06000
H582        H  0.35360849  0.70353236  0.61498313     0.07800
H583        H  0.35135128  0.70295167  0.67897771     0.09000
Cu584      Cu  0.32398300  0.72701282  0.61768339     0.44200
Cu585      Cu  0.32146519  0.72758439  0.67239400     0.42000
Cu586      Cu  0.29440810  0.74978063  0.64145177     0.43900
N587        N  0.30670615  0.73857019  0.60187110    -0.34600
N588        N  0.29577393  0.74696830  0.61085736    -0.28900
C589        C  0.28566768  0.75229881  0.59714159    -0.05000
C590        C  0.29043028  0.74700031  0.57849686     0.07200
C591        C  0.30389058  0.73836239  0.58207379     0.01000
H592        H  0.27545889  0.75929492  0.60063631     0.08700
H593        H  0.31077342  0.73187694  0.57125560     0.07800
N594        N  0.29372482  0.74969795  0.67229369    -0.36100
N595        N  0.30327329  0.74141940  0.68372701    -0.28300
C596        C  0.29904303  0.74345941  0.70296169    -0.03500
C597        C  0.28625428  0.75355625  0.70363163     0.05100
C598        C  0.28328201  0.75725923  0.68384927     0.03200
H599        H  0.30488173  0.73798575  0.71550007     0.08300
H600        H  0.27393655  0.76455305  0.67812590     0.07100
N601        N  0.44975542  0.59054995  0.63065497    -0.27200
N602        N  0.45175572  0.59165705  0.65021989    -0.35100
C603        C  0.44252360  0.60315251  0.65747294     0.01100
C604        C  0.43434028  0.60978858  0.64176635     0.07100
C605        C  0.43923666  0.60148113  0.62496341    -0.06000
H606        H  0.44218800  0.60669724  0.67301477     0.07800
H607        H  0.43547638  0.60324280  0.60969499     0.09000
Cu608      Cu  0.46733647  0.57831532  0.66665976     0.44200
Cu609      Cu  0.46163541  0.57446824  0.61242430     0.42000
Cu610      Cu  0.48712205  0.54811556  0.63947127     0.43900
N611        N  0.48323687  0.56318725  0.67973829    -0.34600
N612        N  0.49029760  0.55185749  0.66959988    -0.28900
C613        C  0.49878907  0.54305095  0.68219594    -0.05000
C614        C  0.49695941  0.54908261  0.70130813     0.07200
C615        C  0.48708804  0.56194677  0.69915648     0.01000
H616        H  0.50528277  0.53264305  0.67779119     0.08700
H617        H  0.48218430  0.56917036  0.71095871     0.07800
N618        N  0.48451047  0.54757562  0.60888937    -0.36100
N619        N  0.47551059  0.55731412  0.59865612    -0.28300
C620        C  0.47743605  0.55433957  0.57899898    -0.03500
C621        C  0.48816759  0.54210837  0.57683316     0.05100
C622        C  0.49232177  0.53816947  0.59619850     0.03200
H623        H  0.47149263  0.56067551  0.56721771     0.08300
H624        H  0.50078272  0.52944896  0.60087841     0.07100
N625        N  0.05766716  0.62398340  0.40176394    -0.27200
N626        N  0.05599654  0.62535189  0.38219844    -0.35100
C627        C  0.06519477  0.63705791  0.37553779     0.01100
C628        C  0.07311876  0.64349381  0.39165763     0.07100
C629        C  0.06798916  0.63485995  0.40806139    -0.06000
H630        H  0.06620698  0.64033487  0.35997276     0.07800
H631        H  0.07148895  0.63625571  0.42348654     0.09000
Cu632      Cu  0.04208067  0.61088818  0.36486936     0.44200
Cu633      Cu  0.04628460  0.60705632  0.41903450     0.42000
Cu634      Cu  0.02156185  0.58047522  0.39108393     0.43900
N635        N  0.02986409  0.59315351  0.35059361    -0.34600
N636        N  0.02257842  0.58177928  0.36034017    -0.28900
C637        C  0.01787769  0.57073542  0.34724750    -0.05000
C638        C  0.02236936  0.57542668  0.32829987     0.07200
C639        C  0.02984657  0.58975907  0.33095562     0.01000
H640        H  0.01233672  0.55972929  0.35137388     0.08700
H641        H  0.03593153  0.59655463  0.31969861     0.07800
N642        N  0.02436443  0.57931990  0.42165969    -0.36100
N643        N  0.03359744  0.58874857  0.43202759    -0.28300
C644        C  0.03328000  0.58425620  0.45133478    -0.03500
C645        C  0.02331002  0.57139604  0.45317256     0.05100
C646        C  0.01790198  0.56866183  0.43398139     0.03200
H647        H  0.03978645  0.59000154  0.46312263     0.08300
H648        H  0.01011758  0.55937693  0.42912030     0.07100
N649        N  0.17266160  0.74497040  0.37853145    -0.27200
N650        N  0.17312949  0.74464448  0.39826813    -0.35100
C651        C  0.16159461  0.73544309  0.40513987     0.01100
C652        C  0.15338283  0.72948245  0.38898852     0.07100
C653        C  0.16069574  0.73591228  0.37231444    -0.06000
H654        H  0.15988582  0.73275644  0.42078684     0.07800
H655        H  0.15811836  0.73348689  0.35678419     0.09000
Cu656      Cu  0.19094159  0.75389473  0.41524401     0.44200
Cu657      Cu  0.18951671  0.75635988  0.36130196     0.42000
Cu658      Cu  0.22367971  0.76976680  0.38944282     0.43900
N659        N  0.21202229  0.75819458  0.42890847    -0.34600
N660        N  0.22440163  0.76353192  0.41933160    -0.28900
C661        C  0.23658352  0.76381679  0.43199807    -0.05000
C662        C  0.23152034  0.75849471  0.45048858     0.07200
C663        C  0.21588241  0.75503193  0.44791385     0.01000
H664        H  0.24818256  0.76775903  0.42806871     0.08700
H665        H  0.20793689  0.75018965  0.45887915     0.07800
N666        N  0.22031110  0.77375892  0.35922008    -0.36100
N667        N  0.20827975  0.76852527  0.34877737    -0.28300
C668        C  0.21055682  0.77209081  0.32936788    -0.03500
C669        C  0.22462347  0.78006203  0.32756970     0.05100
C670        C  0.23040421  0.78093352  0.34684191     0.03200
H671        H  0.20264078  0.76892249  0.31744028     0.08300
H672        H  0.24151389  0.78574591  0.35146150     0.07100
N673        N  0.34618622  0.35022532  0.88493331    -0.27200
N674        N  0.34619064  0.35031254  0.90470041    -0.35100
C675        C  0.35759268  0.35976751  0.91133326     0.01100
C676        C  0.36526715  0.36609559  0.89503214     0.07100
C677        C  0.35773548  0.35971271  0.87848163    -0.06000
H678        H  0.36001378  0.36180252  0.92698721     0.07800
H679        H  0.36025275  0.36194051  0.86289227     0.09000
Cu680      Cu  0.33051685  0.33869570  0.92265127     0.44200
Cu681      Cu  0.33018142  0.33750572  0.86777227     0.42000
Cu682      Cu  0.30032569  0.31837399  0.89756422     0.43900
N683        N  0.31211250  0.32858351  0.93754071    -0.34600
N684        N  0.30083767  0.32112153  0.92808343    -0.28900
C685        C  0.28999020  0.31662533  0.94132181    -0.05000
C686        C  0.29461696  0.32155216  0.96019965     0.07200
C687        C  0.30878075  0.32910610  0.95714965     0.01000
H688        H  0.27936977  0.31059039  0.93720403     0.08700
H689        H  0.31599451  0.33496090  0.96813273     0.07800
N690        N  0.30153814  0.31679268  0.86693029    -0.36100
N691        N  0.31235525  0.32360146  0.85582235    -0.28300
C692        C  0.30968909  0.31990323  0.83653634    -0.03500
C693        C  0.29653691  0.31031990  0.83552508     0.05100
C694        C  0.29173491  0.30866953  0.85516084     0.03200
H695        H  0.31674946  0.32403708  0.82420534     0.08300
H696        H  0.28194490  0.30191101  0.86067624     0.07100
N697        N  0.47827260  0.45176155  0.90929452    -0.27200
N698        N  0.47976783  0.44963774  0.88983315    -0.35100
C699        C  0.46867372  0.43971587  0.88349869     0.01100
C700        C  0.45962956  0.43529472  0.89974193     0.07100
C701        C  0.46614027  0.44318065  0.91591671    -0.06000
H702        H  0.46705483  0.43658858  0.86797057     0.07800
H703        H  0.46221158  0.44307073  0.93128112     0.09000
Cu704      Cu  0.49516331  0.46169740  0.87178113     0.44200
Cu705      Cu  0.49211583  0.46709588  0.92531812     0.42000
Cu706      Cu  0.51604087  0.49305526  0.89422949     0.43900
N707        N  0.50697411  0.47847680  0.85542227    -0.34600
N708        N  0.51423713  0.49050942  0.86381032    -0.28900
C709        C  0.51851374  0.50082119  0.84960034    -0.05000
C710        C  0.51370224  0.49494257  0.83131040     0.07200
C711        C  0.50650365  0.48069807  0.83557116     0.01000
H712        H  0.52402695  0.51208157  0.85252970     0.08700
H713        H  0.50022664  0.47317642  0.82526059     0.07800
N714        N  0.51620210  0.49292084  0.92490798    -0.36100
N715        N  0.50759365  0.48357832  0.93622512    -0.28300
C716        C  0.51036750  0.48692340  0.95550266    -0.03500
C717        C  0.52124693  0.49899010  0.95632366     0.05100
C718        C  0.52468633  0.50245316  0.93661740     0.03200
H719        H  0.50471701  0.48105157  0.96789330     0.08300
H720        H  0.53239834  0.51154163  0.93103951     0.07100
N721        N  0.17640502  0.33955358  0.15792312    -0.27200
N722        N  0.17631525  0.33835869  0.13818125    -0.35100
C723        C  0.16525768  0.34789671  0.13071366     0.01100
C724        C  0.15788212  0.35544371  0.14641128     0.07100
C725        C  0.16517093  0.34980355  0.16347953    -0.06000
H726        H  0.16311902  0.34956024  0.11491686     0.07800
H727        H  0.16305801  0.35352950  0.17872641     0.09000
Cu728      Cu  0.19225958  0.32600846  0.12110762     0.44200
Cu729      Cu  0.19300475  0.32891678  0.17639304     0.42000
Cu730      Cu  0.22601830  0.31561243  0.14785589     0.43900
N731        N  0.21257148  0.31912271  0.10708617    -0.34600
N732        N  0.22535821  0.31608106  0.11732489    -0.28900
C733        C  0.23736367  0.31427752  0.10470340    -0.05000
C734        C  0.23183056  0.31620205  0.08550892     0.07200
C735        C  0.21603246  0.31917611  0.08747930     0.01000
H736        H  0.24928689  0.31213420  0.10923211     0.08700
H737        H  0.20791944  0.32218585  0.07570319     0.07800
N738        N  0.22463183  0.31380243  0.17827276    -0.36100
N739        N  0.21260661  0.31834749  0.18918519    -0.28300
C740        C  0.21543397  0.31450202  0.20839890    -0.03500
C741        C  0.22995290  0.30713118  0.20946176     0.05100
C742        C  0.23534178  0.30699291  0.18996591     0.03200
H743        H  0.20738462  0.31670152  0.22054009     0.08300
H744        H  0.24603804  0.30190771  0.18431859     0.07100
N745        N  0.06843797  0.46605639  0.13173499    -0.27200
N746        N  0.06490544  0.46331879  0.15065188    -0.35100
C747        C  0.07277204  0.45051225  0.15689616     0.01100
C748        C  0.08170313  0.44482125  0.14113837     0.07100
C749        C  0.07864150  0.45505714  0.12543878    -0.06000
H750        H  0.07207030  0.44585164  0.17191236     0.07800
H751        H  0.08321683  0.45447600  0.11038666     0.09000
Cu752      Cu  0.04978860  0.47706969  0.16746475     0.44200
Cu753      Cu  0.05869737  0.48397106  0.11478906     0.42000
Cu754      Cu  0.02961630  0.50721069  0.14029680     0.43900
N755        N  0.03630432  0.49430829  0.18106324    -0.34600
N756        N  0.02899495  0.50544870  0.17093222    -0.28900
C757        C  0.02311523  0.51612383  0.18373953    -0.05000
C758        C  0.02694681  0.51154216  0.20298267     0.07200
C759        C  0.03521746  0.49755649  0.20069007     0.01000
H760        H  0.01719953  0.52682425  0.17919584     0.08700
H761        H  0.04106865  0.49088311  0.21225259     0.07800
N762        N  0.03400182  0.50879541  0.11015029    -0.36100
N763        N  0.04488948  0.50064371  0.10072179    -0.28300
C764        C  0.04486662  0.50475958  0.08131398    -0.03500
C765        C  0.03336865  0.51609763  0.07841340     0.05100
C766        C  0.02675229  0.51830149  0.09712208     0.03200
H767        H  0.05273232  0.49987273  0.07027316     0.08300
H768        H  0.01736117  0.52620506  0.10119398     0.07100
C769        C  0.13465978  0.40083036  0.11086111    -0.17800
C770        C  0.12403854  0.41337262  0.11014386    -0.19900
C771        C  0.11326296  0.41566253  0.12569481     0.20700
C772        C  0.11304387  0.40509322  0.14199092    -0.02900
C773        C  0.12382492  0.39250473  0.14278778    -0.05900
C774        C  0.13471696  0.39041640  0.12718072     0.21000
C775        C  0.12385632  0.38216934  0.15934884     0.19100
C776        C  0.11283827  0.38423585  0.17464966    -0.17400
C777        C  0.10207788  0.39664163  0.17378120    -0.19600
C778        C  0.10221932  0.40723466  0.15765168     0.20600
C779        C  0.09187590  0.42005683  0.15708764    -0.32600
C780        C  0.09224407  0.43089695  0.14114512     0.01300
C781        C  0.10288078  0.42847512  0.12537850    -0.24000
C782        C  0.14561057  0.37809036  0.12831137    -0.28600
C783        C  0.14594503  0.36799305  0.14500726     0.07000
C784        C  0.13500894  0.37006821  0.16042953    -0.27200
H785        H  0.14294012  0.39937234  0.09874569     0.11700
H786        H  0.12433343  0.42135656  0.09749542     0.12800
H787        H  0.11263919  0.37634467  0.18739483     0.11900
H788        H  0.09378334  0.39808619  0.18588156     0.11200
H789        H  0.08361617  0.42157560  0.16918693     0.16600
H790        H  0.10335631  0.43669368  0.11300610     0.12500
H791        H  0.15410237  0.37663961  0.11643613     0.15300
H792        H  0.13513086  0.36220426  0.17321241     0.15100
C793        C  0.28860251  0.33223879  0.03256394    -0.17800
C794        C  0.27976459  0.33150253  0.05010626    -0.19900
C795        C  0.26504334  0.32429199  0.05003615     0.20700
C796        C  0.25915855  0.31771273  0.03218305    -0.02900
C797        C  0.26814201  0.31830505  0.01457287    -0.05900
C798        C  0.28288529  0.32568431  0.01473523     0.21000
C799        C  0.26231348  0.31160666  0.99678638     0.19100
C800        C  0.24761452  0.30434401  0.99672859    -0.17400
C801        C  0.23862352  0.30390826  0.01413790    -0.19600
C802        C  0.24425883  0.31061504  0.03188988     0.20600
C803        C  0.23526459  0.31035877  0.04935440    -0.32600
C804        C  0.24117510  0.31671295  0.06715522     0.01300
C805        C  0.25606843  0.32358147  0.06747880    -0.24000
C806        C  0.29158578  0.32651343  0.99703248    -0.28600
C807        C  0.28575986  0.32004220  0.97913388     0.07000
C808        C  0.27117673  0.31243469  0.97927555    -0.27200
H809        H  0.29990384  0.33794466  0.03293675     0.11700
H810        H  0.28441144  0.33662916  0.06370575     0.12800
H811        H  0.24300455  0.29912984  0.98315922     0.11900
H812        H  0.22725010  0.29835509  0.01370908     0.11200
H813        H  0.22379510  0.30497808  0.04922347     0.16600
H814        H  0.26053763  0.32863624  0.08123064     0.12500
H815        H  0.30280784  0.33233725  0.99728273     0.15300
H816        H  0.26650120  0.30727684  0.96575206     0.15100
C817        C  0.41323828  0.41208530  0.93282083    -0.17800
C818        C  0.39991027  0.40258575  0.93201900    -0.19900
C819        C  0.39575615  0.39489899  0.91417843     0.20700
C820        C  0.40498355  0.39694676  0.89693169    -0.02900
C821        C  0.41843094  0.40647887  0.89775900    -0.05900
C822        C  0.42262587  0.41403250  0.91579850     0.21000
C823        C  0.42773878  0.40832556  0.88055433     0.19100
C824        C  0.42347578  0.40085304  0.86264396    -0.17400
C825        C  0.41013380  0.39144728  0.86180997    -0.19600
C826        C  0.40087847  0.38933803  0.87888807     0.20600
C827        C  0.38773995  0.37954473  0.87827945    -0.32600
C828        C  0.37865653  0.37714317  0.89549683     0.01300
C829        C  0.38265011  0.38505152  0.91333902    -0.24000
C830        C  0.43612949  0.42336818  0.91647812    -0.28600
C831        C  0.44550789  0.42521734  0.89933953     0.07000
C832        C  0.44119241  0.41756952  0.88149233    -0.27200
H833        H  0.41625163  0.41783077  0.94678109     0.11700
H834        H  0.39291033  0.40116067  0.94539246     0.12800
H835        H  0.43050749  0.40222444  0.84928675     0.11900
H836        H  0.40712613  0.38570949  0.84784163     0.11200
H837        H  0.38485186  0.37351474  0.86448059     0.16600
H838        H  0.37562936  0.38356263  0.92665956     0.12500
H839        H  0.43921993  0.42920190  0.93032928     0.15300
H840        H  0.44826302  0.41868985  0.86817639     0.15100
C841        C  0.02671590  0.51495812  0.27666603    -0.17800
C842        C  0.02598637  0.52391328  0.29421944    -0.19900
C843        C  0.02392014  0.54034997  0.29332313     0.20700
C844        C  0.02253127  0.54786397  0.27458735    -0.02900
C845        C  0.02311612  0.53880999  0.25689653    -0.05900
C846        C  0.02530797  0.52229413  0.25795511     0.21000
C847        C  0.02167145  0.54630477  0.23816634     0.19100
C848        C  0.01967347  0.56275695  0.23726789    -0.17400
C849        C  0.01924995  0.57175912  0.25480691    -0.19600
C850        C  0.02071937  0.56443481  0.27351619     0.20600
C851        C  0.02055329  0.57338573  0.29116471    -0.32600
C852        C  0.02187237  0.56593976  0.30983389     0.01300
C853        C  0.02340324  0.54942404  0.31082634    -0.24000
C854        C  0.02622835  0.51342294  0.24029020    -0.28600
C855        C  0.02495164  0.52082467  0.22156249     0.07000
C856        C  0.02249746  0.53725845  0.22064814    -0.27200
H857        H  0.02841341  0.50229339  0.27772341     0.11700
H858        H  0.02712211  0.51799095  0.30850196     0.12800
H859        H  0.01856696  0.56868136  0.22298337     0.11900
H860        H  0.01782252  0.58445776  0.25373623     0.11200
H861        H  0.01933353  0.58612938  0.29041011     0.16600
H862        H  0.02466970  0.54366647  0.32520333     0.12500
H863        H  0.02797770  0.50075720  0.24115175     0.15300
H864        H  0.02169247  0.54314890  0.20632267     0.15100
C865        C  0.10012273  0.68705330  0.35623508    -0.17800
C866        C  0.11124253  0.69914582  0.35589395    -0.19900
C867        C  0.12039372  0.70229125  0.37282255     0.20700
C868        C  0.11825080  0.69320194  0.39029254    -0.02900
C869        C  0.10706541  0.68097818  0.39061925    -0.05900
C870        C  0.09797431  0.67788450  0.37350543     0.21000
C871        C  0.10502942  0.67183172  0.40805153     0.19100
C872        C  0.11414322  0.67498653  0.42499764    -0.17400
C873        C  0.12519830  0.68710552  0.42468829    -0.19600
C874        C  0.12734236  0.69625136  0.40741355     0.20600
C875        C  0.13854608  0.70827127  0.40693465    -0.32600
C876        C  0.14093388  0.71730076  0.38951812     0.01300
C877        C  0.13171841  0.71426885  0.37254269    -0.24000
C878        C  0.08690621  0.66568489  0.37395307    -0.28600
C879        C  0.08479242  0.65646745  0.39128966     0.07000
C880        C  0.09395197  0.65966663  0.40826237    -0.27200
H881        H  0.09322700  0.68484256  0.34295763     0.11700
H882        H  0.11271719  0.70600956  0.34235785     0.12800
H883        H  0.11272821  0.66806990  0.43850210     0.11900
H884        H  0.13211325  0.68929380  0.43795619     0.11200
H885        H  0.14562150  0.71027817  0.42007889     0.16600
H886        H  0.13333483  0.72119851  0.35909444     0.12500
H887        H  0.07990244  0.66350200  0.36078632     0.15300
H888        H  0.09260977  0.65264640  0.42166828     0.15100
C889        C  0.51062562  0.49334096  0.75793145    -0.17800
C890        C  0.50848710  0.50099751  0.73966454    -0.19900
C891        C  0.50704841  0.51750183  0.73893978     0.20700
C892        C  0.50804708  0.52644999  0.75669977    -0.02900
C893        C  0.51036961  0.51873575  0.77510968    -0.05900
C894        C  0.51146271  0.50209023  0.77571586     0.21000
C895        C  0.51122861  0.52763468  0.79293229     0.19100
C896        C  0.50987851  0.54415955  0.79216747    -0.17400
C897        C  0.50740596  0.55180436  0.77390743    -0.19600
C898        C  0.50633715  0.54304529  0.75612219     0.20600
C899        C  0.50319081  0.55050950  0.73784497    -0.32600
C900        C  0.50187057  0.54157655  0.72018410     0.01300
C901        C  0.50415795  0.52513831  0.72081171    -0.24000
C902        C  0.51302400  0.49444951  0.79413126    -0.28600
C903        C  0.51360231  0.50321076  0.81194645     0.07000
C904        C  0.51300789  0.51981218  0.81123764    -0.27200
H905        H  0.51147344  0.48056134  0.75817148     0.11700
H906        H  0.50771888  0.49398667  0.72612712     0.12800
H907        H  0.51050330  0.55115417  0.80573103     0.11900
H908        H  0.50615675  0.56454897  0.77372292     0.11200
H909        H  0.50154756  0.56320893  0.73740345     0.16600
H910        H  0.50296326  0.51812031  0.70734111     0.12500
H911        H  0.51361854  0.48165459  0.79462332     0.15300
H912        H  0.51326451  0.52663048  0.82496201     0.15100
C913        C  0.28136163  0.75008390  0.48641529    -0.17800
C914        C  0.28960437  0.74838618  0.50435955    -0.19900
C915        C  0.28185694  0.74953470  0.52281830     0.20700
C916        C  0.26565649  0.75248422  0.52317359    -0.02900
C917        C  0.25733221  0.75404743  0.50510804    -0.05900
C918        C  0.26521941  0.75288296  0.48662469     0.21000
C919        C  0.24109629  0.75673325  0.50557335     0.19100
C920        C  0.23335162  0.75802808  0.52397669    -0.17400
C921        C  0.24161028  0.75660835  0.54185164    -0.19600
C922        C  0.25772409  0.75379308  0.54158954     0.20600
C923        C  0.26598234  0.75214862  0.55946977    -0.32600
C924        C  0.28208109  0.74904962  0.55932491     0.01300
C925        C  0.28996766  0.74773715  0.54092450    -0.24000
C926        C  0.25679359  0.75449098  0.46873309    -0.28600
C927        C  0.24057476  0.75700495  0.46917115     0.07000
C928        C  0.23284704  0.75808805  0.48764630    -0.27200
H929        H  0.28760534  0.74914552  0.47236790     0.11700
H930        H  0.30203988  0.74615879  0.50379865     0.12800
H931        H  0.22089160  0.76012884  0.52454754     0.11900
H932        H  0.23537536  0.75763531  0.55589585     0.11200
H933        H  0.25973290  0.75295276  0.57351602     0.16600
H934        H  0.30240189  0.74546094  0.54068798     0.12500
H935        H  0.26280003  0.75353737  0.45451482     0.15300
H936        H  0.22039402  0.76024619  0.48811835     0.15100
C937        C  0.40799562  0.65527114  0.60998369    -0.17800
C938        C  0.39769156  0.66806785  0.61096932    -0.19900
C939        C  0.38968366  0.67149658  0.62877581     0.20700
C940        C  0.39226818  0.66212258  0.64586260    -0.02900
C941        C  0.40274034  0.64924565  0.64489928    -0.05900
C942        C  0.41052352  0.64573097  0.62681319     0.21000
C943        C  0.40530505  0.63981808  0.66196021     0.19100
C944        C  0.39743308  0.64337893  0.67983251    -0.17400
C945        C  0.38697901  0.65608226  0.68074629    -0.19600
C946        C  0.38424940  0.66548296  0.66382294     0.15800
C947        C  0.37341151  0.67795432  0.66442062    -0.32600
C948        C  0.37042224  0.68708440  0.64725070     0.01300
C949        C  0.37891477  0.68394671  0.62963349    -0.24000
C950        C  0.42067686  0.63273956  0.62584621    -0.28600
C951        C  0.42332858  0.62329134  0.64278388     0.07000
C952        C  0.41562972  0.62696159  0.66081924    -0.27200
H953        H  0.41392812  0.65278433  0.59601176     0.11700
H954        H  0.39584719  0.67518133  0.59771836     0.12800
H955        H  0.39928119  0.63626633  0.69308282     0.11900
H956        H  0.38094340  0.65848697  0.69466671     0.11200
H957        H  0.36700505  0.68019653  0.67809605     0.16600
H958        H  0.37703109  0.69102309  0.61638293     0.12500
H959        H  0.42669104  0.63015089  0.61196337     0.15300
H960        H  0.41749018  0.61969293  0.67392753     0.15100
C961        C  0.00557632  0.55902082  0.04344272    -0.17800
C962        C  0.00231985  0.56753200  0.02606277    -0.19900
C963        C  0.00897308  0.56301155  0.00776018     0.20700
C964        C  0.01889610  0.54970957  0.00690715    -0.02900
C965        C  0.02217269  0.54111479  0.02443849    -0.05900
C966        C  0.01553148  0.54585875  0.04277655     0.21000
C967        C  0.03219595  0.52788786  0.02364595     0.19100
C968        C  0.03872511  0.52327623  0.00529236    -0.17400
C969        C  0.03548062  0.53180849  0.98789622    -0.19600
C970        C  0.02563391  0.54506480  0.98858449     0.20600
C971        C  0.02247600  0.55379385  0.97128497    -0.32600
C972        C  0.01261560  0.56711386  0.97199053     0.01300
C973        C  0.00589530  0.57159918  0.99032799    -0.24000
C974        C  0.01909693  0.53750510  0.06020664    -0.28600
C975        C  0.02926310  0.52443710  0.05966965     0.07000
C976        C  0.03564437  0.51961706  0.04124371    -0.27200
H977        H  0.00037580  0.56278907  0.05743511     0.11700
H978        H  0.99465258  0.57770019  0.02695642     0.12800
H979        H  0.04642606  0.51313335  0.00441303     0.11900
H980        H  0.04072329  0.52807683  0.97391467     0.11200
H981        H  0.02786506  0.55021666  0.95735995     0.16600
H982        H  0.99818586  0.58171933  0.99113022     0.12500
H983        H  0.01411098  0.54146452  0.07420672     0.15300
H984        H  0.04335625  0.50949457  0.04050875     0.15100
C985        C  0.93140688  0.69016999  0.92732920    -0.17800
C986        C  0.91944764  0.70141435  0.92722724    -0.19900
C987        C  0.91129533  0.70472548  0.90953378     0.20700
C988        C  0.91526324  0.69670480  0.89174705    -0.02900
C989        C  0.92735919  0.68538670  0.89183846    -0.05900
C990        C  0.93543345  0.68208016  0.90972860     0.21000
C991        C  0.93130995  0.67733646  0.87406090     0.19100
C992        C  0.92314899  0.68065057  0.85637182    -0.17400
C993        C  0.91113677  0.69184227  0.85629340    -0.19600
C994        C  0.90709672  0.69991792  0.87389887     0.20600
C995        C  0.89492492  0.71100680  0.87400692    -0.32600
C996        C  0.89075085  0.71892729  0.89175174     0.01300
C997        C  0.89915683  0.71581256  0.90939214    -0.24000
C998        C  0.94735394  0.67071701  0.90972898    -0.28600
C999        C  0.95135402  0.66258470  0.89207191     0.07000
C1000       C  0.94327665  0.66603989  0.87428440    -0.27200
H1001       H  0.93749168  0.68777915  0.94119402     0.11700
H1002       H  0.91652588  0.70747391  0.94101975     0.12800
H1003       H  0.92603161  0.67455229  0.84259418     0.11900
H1004       H  0.90497630  0.69415085  0.84246238     0.11200
H1005       H  0.88855445  0.71318710  0.86032096     0.16600
H1006       H  0.89627128  0.72193356  0.92312968     0.12500
H1007       H  0.95354377  0.66829919  0.92349763     0.15300
H1008       H  0.94607089  0.65978345  0.86061199     0.15100
C1009       C  0.55875075  0.53508154  0.98844476    -0.17800
C1010       C  0.56372740  0.54362829  0.00514938    -0.19900
C1011       C  0.55554810  0.54258424  0.02327352     0.20700
C1012       C  0.54219635  0.53289366  0.02457640    -0.02900
C1013       C  0.53720845  0.52426733  0.00778044    -0.05900
C1014       C  0.54552854  0.52537676  0.98964120     0.21000
C1015       C  0.52390524  0.51452837  0.00915872     0.19100
C1016       C  0.51567751  0.51352599  0.02723573    -0.17400
C1017       C  0.52062100  0.52208871  0.04389827    -0.19600
C1018       C  0.53387131  0.53173492  0.04270136     0.20600
C1019       C  0.53905692  0.54005975  0.05942793    -0.32600
C1020       C  0.55257403  0.54938741  0.05841972     0.01300
C1021       C  0.56062897  0.55082975  0.04021717    -0.24000
C1022       C  0.54042383  0.51683076  0.97298788    -0.28600
C1023       C  0.52706508  0.50726013  0.97420702     0.07000
C1024       C  0.51895417  0.50606889  0.99239031    -0.27200
H1025       H  0.56524602  0.53605457  0.97459367     0.11700
H1026       H  0.57400338  0.55100172  0.00391881     0.12800
H1027       H  0.50542463  0.50611859  0.02848546     0.11900
H1028       H  0.51413085  0.52110297  0.05775300     0.11200
H1029       H  0.53258006  0.53913172  0.07328719     0.16600
H1030       H  0.57109501  0.55795147  0.03935288     0.12500
H1031       H  0.54688301  0.51767442  0.95910860     0.15300
H1032       H  0.50856321  0.49886344  0.99346276     0.15100
C1033       C  0.74753703  0.77966935  0.01681918    -0.17800
C1034       C  0.75551304  0.77869821  0.99863160    -0.19900
C1035       C  0.77119414  0.77395995  0.99811694     0.20700
C1036       C  0.77898821  0.77033885  0.01608893    -0.02900
C1037       C  0.77098870  0.77145482  0.03445501    -0.05900
C1038       C  0.75514325  0.77598993  0.03477261     0.21000
C1039       C  0.77878576  0.76784848  0.05245358     0.19100
C1040       C  0.79447125  0.76313426  0.05193149    -0.17400
C1041       C  0.80237143  0.76192919  0.03369348    -0.19600
C1042       C  0.79472887  0.76549235  0.01570584     0.20600
C1043       C  0.80255065  0.76427792  0.99735648    -0.32600
C1044       C  0.79487274  0.76787571  0.97932421     0.01300
C1045       C  0.77916769  0.77271760  0.97991366    -0.24000
C1046       C  0.74711762  0.77651496  0.05299914    -0.28600
C1047       C  0.75478516  0.77280220  0.07091419     0.07000
C1048       C  0.77067256  0.76873485  0.07060794    -0.27200
H1049       H  0.73539066  0.78320829  0.01683218     0.11700
H1050       H  0.74937859  0.78154282  0.98494196     0.12800
H1051       H  0.80060022  0.76028006  0.06561968     0.11900
H1052       H  0.81446225  0.75819516  0.03365666     0.11200
H1053       H  0.81464241  0.76061203  0.99725213     0.16600
H1054       H  0.77299888  0.77544952  0.96624797     0.12500
H1055       H  0.73487767  0.77973290  0.05326369     0.15300
H1056       H  0.77656747  0.76567020  0.08439803     0.15100
C1057       C  0.63993519  0.66847830  0.10675186    -0.17800
C1058       C  0.65031536  0.68117771  0.10818367    -0.19900
C1059       C  0.65390791  0.68777997  0.12689520     0.20700
C1060       C  0.64688150  0.68162847  0.14428965    -0.02900
C1061       C  0.63641772  0.66886257  0.14284124    -0.05900
C1062       C  0.63300630  0.66217494  0.12401187     0.21000
C1063       C  0.62952220  0.66268289  0.16029128     0.19100
C1064       C  0.63297318  0.66935474  0.17897237    -0.17400
C1065       C  0.64335312  0.68198117  0.18041176    -0.19600
C1066       C  0.65039760  0.68813983  0.16318663     0.20600
C1067       C  0.66092021  0.70068238  0.16459798    -0.32600
C1068       C  0.66805437  0.70686459  0.14739895     0.01300
C1069       C  0.66445433  0.70036132  0.12855510    -0.24000
C1070       C  0.62297917  0.64911978  0.12284655    -0.28600
C1071       C  0.61638507  0.64262339  0.14029823     0.07000
C1072       C  0.61951073  0.64973862  0.15888311    -0.27200
H1073       H  0.63743357  0.66350013  0.09216542     0.11700
H1074       H  0.65559519  0.68578161  0.09467183     0.12800
H1075       H  0.62774470  0.66471451  0.19250215     0.11900
H1076       H  0.64592622  0.68688713  0.19501635     0.11200
H1077       H  0.66341856  0.70568026  0.17915800     0.16600
H1078       H  0.66995588  0.70490492  0.11517554     0.12500
H1079       H  0.62062561  0.64389694  0.10838167     0.15300
H1080       H  0.61444441  0.64510581  0.17247072     0.15100
C1081       C  0.49577979  0.54284668  0.50327754    -0.17800
C1082       C  0.50106549  0.53559921  0.48569314    -0.19900
C1083       C  0.50853612  0.52083009  0.48638719     0.20700
C1084       C  0.51093390  0.51343123  0.50501471    -0.02900
C1085       C  0.50561721  0.52074471  0.52274973    -0.05900
C1086       C  0.49787111  0.53545397  0.52186443     0.21000
C1087       C  0.50787739  0.51322486  0.54132480     0.19100
C1088       C  0.51560500  0.49860943  0.54208104    -0.17400
C1089       C  0.52085738  0.49136967  0.52452624    -0.19600
C1090       C  0.51846771  0.49862503  0.50592701     0.20600
C1091       C  0.52334285  0.49121695  0.48824506    -0.32600
C1092       C  0.52079115  0.49833076  0.46950689     0.01300
C1093       C  0.51347912  0.51325635  0.46878095    -0.24000
C1094       C  0.49223415  0.54242608  0.53953811    -0.28600
C1095       C  0.49426265  0.53489254  0.55811605     0.07000
C1096       C  0.50221536  0.52032906  0.55881604    -0.27200
H1097       H  0.48992294  0.55417502  0.50231502     0.11700
H1098       H  0.49917756  0.54148506  0.47152131     0.12800
H1099       H  0.51747202  0.49270560  0.55624877     0.11900
H1100       H  0.52667356  0.48001855  0.52548523     0.11200
H1101       H  0.52904411  0.47983569  0.48923408     0.16600
H1102       H  0.51143338  0.51897853  0.45456538     0.12500
H1103       H  0.48631040  0.55372003  0.53877436     0.15300
H1104       H  0.50379137  0.51428265  0.57292448     0.15100
C1105       C  0.55620360  0.50271519  0.23651758    -0.17800
C1106       C  0.55376271  0.49416841  0.25410742    -0.19900
C1107       C  0.55178776  0.50206340  0.27240146     0.20700
C1108       C  0.55224786  0.51872984  0.27300568    -0.02900
C1109       C  0.55485267  0.52734785  0.25529300    -0.05900
C1110       C  0.55679303  0.51928383  0.23697518     0.21000
C1111       C  0.55558179  0.54401123  0.25593450     0.19100
C1112       C  0.55348124  0.55190374  0.27420658    -0.17400
C1113       C  0.55076082  0.54335918  0.29174782    -0.19600
C1114       C  0.55017400  0.52678345  0.29130801     0.20600
C1115       C  0.54766128  0.51812207  0.30886681    -0.32600
C1116       C  0.54735079  0.50150052  0.30841172     0.01300
C1117       C  0.54940088  0.49357491  0.29009891    -0.24000
C1118       C  0.55937344  0.52791919  0.21944831    -0.28600
C1119       C  0.56028941  0.54449962  0.22002186     0.07000
C1120       C  0.55842609  0.55247478  0.23830524    -0.27200
H1121       H  0.55769326  0.49636403  0.22256415     0.11700
H1122       H  0.55342074  0.48137407  0.25340187     0.12800
H1123       H  0.55396343  0.56468985  0.27493821     0.11900
H1124       H  0.54919390  0.54971597  0.30568478     0.11200
H1125       H  0.54625996  0.52434813  0.32291857     0.16600
H1126       H  0.54900411  0.48078178  0.28954039     0.12500
H1127       H  0.56097555  0.52169417  0.20542206     0.15300
H1128       H  0.55898039  0.56526859  0.23876970     0.15100
C1129       C  0.61913112  0.36304177  0.36308246    -0.17800
C1130       C  0.60852005  0.37555652  0.36209761    -0.19900
C1131       C  0.60213686  0.38198820  0.37964327     0.20700
C1132       C  0.60633905  0.37564966  0.39836192    -0.02900
C1133       C  0.61707845  0.36300777  0.39935947    -0.05900
C1134       C  0.62356814  0.35676938  0.38162999     0.21000
C1135       C  0.62151563  0.35680652  0.41807090     0.19100
C1136       C  0.61494163  0.36311106  0.43560611    -0.17400
C1137       C  0.60426848  0.37562931  0.43461237    -0.19600
C1138       C  0.59996874  0.38205578  0.41606670     0.20600
C1139       C  0.58952001  0.39483372  0.41491953    -0.32600
C1140       C  0.58534461  0.40133648  0.39627326     0.01300
C1141       C  0.59170561  0.39471217  0.37872889    -0.24000
C1142       C  0.63470840  0.34467294  0.38271605    -0.28600
C1143       C  0.63970309  0.33879306  0.40131093     0.07000
C1144       C  0.63272813  0.34469998  0.41892756    -0.27200
H1145       H  0.62400798  0.35838330  0.34932568     0.11700
H1146       H  0.60538290  0.38028002  0.34759494     0.12800
H1147       H  0.61819205  0.35848135  0.45011519     0.11900
H1148       H  0.59947163  0.38036744  0.44836858     0.11200
H1149       H  0.58477620  0.39971585  0.42859907     0.16600
H1150       H  0.58863391  0.39940008  0.36422254     0.12500
H1151       H  0.63986742  0.34031056  0.36900293     0.15300
H1152       H  0.63621537  0.34015833  0.43337201     0.15100
C1153       C  0.98847981  0.53493906  0.48994765    -0.17800
C1154       C  0.98457285  0.52660853  0.50731077    -0.19900
C1155       C  0.99410819  0.52747775  0.52432342     0.20700
C1156       C  0.00774094  0.53681123  0.52378312    -0.02900
C1157       C  0.01167685  0.54522527  0.50627234    -0.05900
C1158       C  0.00198327  0.54429473  0.48929819     0.21000
C1159       C  0.02525482  0.55463787  0.50581129     0.19100
C1160       C  0.03484802  0.55542908  0.52276078    -0.17400
C1161       C  0.03095571  0.54709430  0.54009549    -0.19600
C1162       C  0.01740365  0.53782874  0.54077578     0.20600
C1163       C  0.01331365  0.52966913  0.55821833    -0.32600
C1164       C  0.99966326  0.52047139  0.55902251     0.01300
C1165       C  0.99018787  0.51931432  0.54191091    -0.24000
C1166       C  0.00589960  0.55281084  0.47202652    -0.28600
C1167       C  0.01935334  0.56234152  0.47147848     0.07000
C1168       C  0.02898087  0.56314305  0.48845997    -0.27200
H1169       H  0.98090385  0.53410180  0.47703419     0.11700
H1170       H  0.97406062  0.51951828  0.50744974     0.12800
H1171       H  0.04533277  0.56256226  0.52264760     0.11900
H1172       H  0.03851164  0.54796640  0.55302384     0.11200
H1173       H  0.02084664  0.53047987  0.57116361     0.16600
H1174       H  0.97960328  0.51234872  0.54237276     0.12500
H1175       H  0.99829069  0.55218127  0.45913900     0.15300
H1176       H  0.03945524  0.57027988  0.48817500     0.15100
C1177       C  0.00704622  0.57439142  0.75504609    -0.17800
C1178       C  0.00536596  0.56543240  0.73761318    -0.19900
C1179       C  0.00430489  0.54890625  0.73861874     0.20700
C1180       C  0.00507868  0.54128850  0.75734212    -0.02900
C1181       C  0.00692212  0.55032660  0.77492644    -0.05900
C1182       C  0.00776018  0.56696416  0.77375779     0.21000
C1183       C  0.00767585  0.54274326  0.79366883     0.19100
C1184       C  0.00665559  0.52619837  0.79466133    -0.17400
C1185       C  0.00468610  0.51724318  0.77723438    -0.19600
C1186       C  0.00380373  0.52467822  0.75851715     0.20600
C1187       C  0.00153620  0.51583997  0.74097410    -0.32600
C1188       C  0.00076511  0.52338950  0.72227067     0.01300
C1189       C  0.00229392  0.53990502  0.72122847    -0.24000
C1190       C  0.00899546  0.57591392  0.79132687    -0.28600
C1191       C  0.00943950  0.56848192  0.81008722     0.07000
C1192       C  0.00906864  0.55185822  0.81110853    -0.27200
H1193       H  0.00768587  0.58715031  0.75390001     0.11700
H1194       H  0.00477067  0.57144552  0.72333955     0.12800
H1195       H  0.00720253  0.52019329  0.80894342     0.11900
H1196       H  0.00377284  0.50450453  0.77840755     0.11200
H1197       H  0.00045920  0.50309619  0.74186006     0.16600
H1198       H  0.00149647  0.54583937  0.70691947     0.12500
H1199       H  0.00945544  0.58869259  0.79038630     0.15300
H1200       H  0.00925313  0.54598480  0.82548287     0.15100
C1201       C  0.78099922  0.30583676  0.50519378    -0.17800
C1202       C  0.78885942  0.30872063  0.52319106    -0.19900
C1203       C  0.78055703  0.31006716  0.54123313     0.20700
C1204       C  0.76419549  0.30836628  0.54112994    -0.02900
C1205       C  0.75627209  0.30554428  0.52300601    -0.05900
C1206       C  0.76469668  0.30429416  0.50492237     0.21000
C1207       C  0.73988213  0.30415713  0.52298539     0.19100
C1208       C  0.73157572  0.30533523  0.54098776    -0.17400
C1209       C  0.73942284  0.30805038  0.55892198    -0.19600
C1210       C  0.75569164  0.30966504  0.55911182     0.20600
C1211       C  0.76352228  0.31277209  0.57699368    -0.32600
C1212       C  0.77980277  0.31472373  0.57731736     0.01300
C1213       C  0.78826915  0.31323587  0.55933500    -0.24000
C1214       C  0.75661676  0.30177847  0.48691229    -0.28600
C1215       C  0.74023319  0.30078757  0.48682968     0.07000
C1216       C  0.73201504  0.30181976  0.50494983    -0.27200
H1217       H  0.78766224  0.30493007  0.49146434     0.11700
H1218       H  0.80142941  0.30997617  0.52298095     0.12800
H1219       H  0.71898503  0.30426217  0.54118169     0.11900
H1220       H  0.73274843  0.30901424  0.57263581     0.11200
H1221       H  0.75675708  0.31399791  0.59056236     0.16600
H1222       H  0.80082207  0.31457731  0.55934154     0.12500
H1223       H  0.76301649  0.30107042  0.47295708     0.15300
H1224       H  0.71941847  0.30080825  0.50505052     0.15100
C1225       C  0.90201507  0.42002485  0.68506470    -0.17800
C1226       C  0.89042923  0.40853077  0.68700481    -0.19900
C1227       C  0.88783807  0.39756486  0.67161051     0.20700
C1228       C  0.89701360  0.39815554  0.65409966    -0.02900
C1229       C  0.90862833  0.40981783  0.65207966    -0.05900
C1230       C  0.91113784  0.42077053  0.66766335     0.21000
C1231       C  0.91764040  0.41058496  0.63442483     0.19100
C1232       C  0.91509963  0.39955583  0.61908705    -0.17400
C1233       C  0.90364036  0.38792859  0.62114336    -0.19600
C1234       C  0.89449371  0.38719612  0.63853146     0.20600
C1235       C  0.88272837  0.37583856  0.64048791    -0.32600
C1236       C  0.87329564  0.37538047  0.65770884     0.01300
C1237       C  0.87607448  0.38618230  0.67330982    -0.24000
C1238       C  0.92266396  0.43234073  0.66553981    -0.28600
C1239       C  0.93160700  0.43326253  0.64794458     0.07000
C1240       C  0.92900409  0.42238039  0.63241683    -0.27200
H1241       H  0.90379804  0.42837811  0.69714307     0.11700
H1242       H  0.88346726  0.40824302  0.70053284     0.12800
H1243       H  0.92194595  0.39995130  0.60546839     0.11900
H1244       H  0.90184331  0.37958568  0.60905744     0.11200
H1245       H  0.88086472  0.36746693  0.62846632     0.16600
H1246       H  0.86886103  0.38606431  0.68660312     0.12500
H1247       H  0.92445910  0.44081272  0.67748014     0.15300
H1248       H  0.93595458  0.42295537  0.61889250     0.15100
C1249       C  0.22988088  0.29097583  0.28063132    -0.17800
C1250       C  0.23744890  0.28435536  0.29712897    -0.19900
C1251       C  0.25275539  0.27863584  0.29535567     0.20700
C1252       C  0.26040407  0.27924805  0.27670409    -0.02900
C1253       C  0.25279158  0.28598832  0.26009360    -0.05900
C1254       C  0.23750246  0.29199215  0.26210559     0.21000
C1255       C  0.26057723  0.28694803  0.24158085     0.19100
C1256       C  0.27576548  0.28091495  0.23968871    -0.17400
C1257       C  0.28329964  0.27419760  0.25613905    -0.19600
C1258       C  0.27578381  0.27345978  0.27475045     0.20600
C1259       C  0.28356053  0.26753633  0.29157843    -0.32600
C1260       C  0.27625198  0.26759371  0.31039232     0.01300
C1261       C  0.26070822  0.27276755  0.31204463    -0.24000
C1262       C  0.23012735  0.29896561  0.24560598    -0.28600
C1263       C  0.23782965  0.30004642  0.22707952     0.07000
C1264       C  0.25310120  0.29400752  0.22528667    -0.27200
H1265       H  0.21811947  0.29545925  0.28242143     0.11700
H1266       H  0.23140793  0.28391518  0.31135441     0.12800
H1267       H  0.28187195  0.28151303  0.22551750     0.11900
H1268       H  0.29509210  0.26979670  0.25437574     0.11200
H1269       H  0.29553998  0.26360886  0.29017216     0.16600
H1270       H  0.25487990  0.27256500  0.32642331     0.12500
H1271       H  0.21837324  0.30346229  0.24725915     0.15300
H1272       H  0.25933403  0.29479601  0.21126571     0.15100
C1273       C  0.40962715  0.17272111  0.35371856    -0.17800
C1274       C  0.39787969  0.18418746  0.35336409    -0.19900
C1275       C  0.39183132  0.19032566  0.37127017     0.20700
C1276       C  0.39773716  0.18492733  0.38971817    -0.02900
C1277       C  0.40960249  0.17334550  0.39007476    -0.05900
C1278       C  0.41554009  0.16720744  0.37198507     0.21000
C1279       C  0.41547589  0.16788662  0.40850731     0.19100
C1280       C  0.40947971  0.17409578  0.42641942    -0.17400
C1281       C  0.39772077  0.18557419  0.42606795    -0.19600
C1282       C  0.39175328  0.19104282  0.40779794     0.20600
C1283       C  0.37984077  0.20242563  0.40730326    -0.32600
C1284       C  0.37376316  0.20779408  0.38895149     0.01300
C1285       C  0.37993433  0.20170429  0.37100970    -0.24000
C1286       C  0.42725680  0.15564367  0.37243009    -0.28600
C1287       C  0.43320999  0.15005434  0.39073023     0.07000
C1288       C  0.42721553  0.15631168  0.40871958    -0.27200
H1289       H  0.41407084  0.16813789  0.33968302     0.11700
H1290       H  0.39348320  0.18821761  0.33906712     0.12800
H1291       H  0.41386289  0.17004849  0.44071682     0.11900
H1292       H  0.39326206  0.19014505  0.44009922     0.11200
H1293       H  0.37520034  0.20688387  0.42127232     0.16600
H1294       H  0.37554900  0.20580347  0.35675830     0.12500
H1295       H  0.43163129  0.15100910  0.35841805     0.15300
H1296       H  0.43164272  0.15226063  0.42296474     0.15100
C1297       C  0.25100894  0.28604229  0.80178557    -0.17800
C1298       C  0.24365239  0.28067521  0.78437427    -0.19900
C1299       C  0.25159812  0.28074738  0.76600651     0.20700
C1300       C  0.26720513  0.28599887  0.76527803    -0.02900
C1301       C  0.27462244  0.29140375  0.78282965    -0.05900
C1302       C  0.26643638  0.29157278  0.80112400     0.21000
C1303       C  0.29013798  0.29690596  0.78197211     0.19100
C1304       C  0.29821515  0.29661604  0.76373018    -0.17400
C1305       C  0.29087365  0.29127291  0.74635604    -0.19600
C1306       C  0.27533800  0.28612477  0.74694396     0.20600
C1307       C  0.26774838  0.28135497  0.72943308    -0.32600
C1308       C  0.25207559  0.27648434  0.72986733     0.01300
C1309       C  0.24414569  0.27596019  0.74830446    -0.24000
C1310       C  0.27372585  0.29753617  0.81833252    -0.28600
C1311       C  0.28909056  0.30341877  0.81749126     0.07000
C1312       C  0.29725208  0.30284371  0.79926948    -0.27200
H1313       H  0.24456539  0.28604052  0.81573220     0.11700
H1314       H  0.23168529  0.27664318  0.78523477     0.12800
H1315       H  0.31015692  0.30072372  0.76284378     0.11900
H1316       H  0.29729368  0.29136160  0.73239033     0.11200
H1317       H  0.27410787  0.28151535  0.71543674     0.16600
H1318       H  0.23207065  0.27224970  0.74884777     0.12500
H1319       H  0.26724460  0.29792629  0.83222485     0.15300
H1320       H  0.30914796  0.30707064  0.79845266     0.15100
C1321       C  0.29059073  0.27631642  0.54487821    -0.17800
C1322       C  0.29804397  0.27574552  0.52628731    -0.19900
C1323       C  0.28934278  0.27664859  0.50856852     0.20700
C1324       C  0.27300220  0.27840898  0.50956068    -0.02900
C1325       C  0.26547539  0.27890026  0.52830236    -0.05900
C1326       C  0.27431385  0.27774338  0.54603846     0.21000
C1327       C  0.24908203  0.28012833  0.52926964     0.19100
C1328       C  0.24040624  0.28132205  0.51156351    -0.17400
C1329       C  0.24788053  0.28093946  0.49298682    -0.19600
C1330       C  0.26414157  0.27931624  0.49183532     0.20600
C1331       C  0.27164491  0.27821481  0.47327078    -0.32600
C1332       C  0.28789286  0.27604928  0.47215584     0.01300
C1333       C  0.29667063  0.27551143  0.48989266    -0.24000
C1334       C  0.26667955  0.27751363  0.56458141    -0.28600
C1335       C  0.25031854  0.27802901  0.56555741     0.07000
C1336       C  0.24161972  0.27965030  0.54789004    -0.27200
H1337       H  0.29753899  0.27540214  0.55835030     0.11700
H1338       H  0.31060608  0.27442025  0.52576699     0.12800
H1339       H  0.22781453  0.28231908  0.51207506     0.11900
H1340       H  0.24091776  0.28167688  0.47950892     0.11200
H1341       H  0.26470943  0.27853137  0.45976074     0.16600
H1342       H  0.30921044  0.27406416  0.48922652     0.12500
H1343       H  0.27343314  0.27614111  0.57815722     0.15300
H1344       H  0.22900307  0.28022463  0.54861961     0.15100
C1345       C  0.13448476  0.19413840  0.60722959    -0.17800
C1346       C  0.12421919  0.18137041  0.60550066    -0.19900
C1347       C  0.12068417  0.17201242  0.62220508     0.20700
C1348       C  0.12720665  0.17586734  0.64096656    -0.02900
C1349       C  0.13762830  0.18870611  0.64269069    -0.05900
C1350       C  0.14144483  0.19772541  0.62567476     0.21000
C1351       C  0.14453828  0.19223692  0.66131059     0.19100
C1352       C  0.14057531  0.18323803  0.67817602    -0.17400
C1353       C  0.13019748  0.17056549  0.67649149    -0.19600
C1354       C  0.12363592  0.16665899  0.65790513     0.20600
C1355       C  0.11384237  0.15350119  0.65590289    -0.32600
C1356       C  0.10761269  0.14927170  0.63714549     0.01300
C1357       C  0.11097560  0.15872178  0.62040306    -0.24000
C1358       C  0.15249844  0.20986059  0.62723745    -0.28600
C1359       C  0.16002873  0.21300076  0.64553131     0.07000
C1360       C  0.15564278  0.20436606  0.66262301    -0.27200
H1361       H  0.13723125  0.20101210  0.59403067     0.11700
H1362       H  0.11923243  0.17866451  0.59101644     0.12800
H1363       H  0.14570794  0.18582896  0.69261055     0.11900
H1364       H  0.12750922  0.16364681  0.68967202     0.11200
H1365       H  0.11147889  0.14632127  0.66893919     0.16600
H1366       H  0.10609036  0.15573153  0.60595356     0.12500
H1367       H  0.15544245  0.21657980  0.61400809     0.15300
H1368       H  0.16120231  0.20665217  0.67685423     0.15100
C1369       C  0.25023435  0.79130673  0.73662551    -0.17800
C1370       C  0.24184666  0.79628824  0.75346784    -0.19900
C1371       C  0.24251179  0.78762824  0.77133428     0.20700
C1372       C  0.25167098  0.77376631  0.77219337    -0.02900
C1373       C  0.26011741  0.76873185  0.75519679    -0.05900
C1374       C  0.25942166  0.77756789  0.73735006     0.21000
C1375       C  0.26933117  0.75491573  0.75612122     0.19100
C1376       C  0.26987237  0.74616210  0.77390989    -0.17400
C1377       C  0.26153569  0.75116196  0.79075096    -0.19600
C1378       C  0.25250175  0.76499097  0.79007937     0.20600
C1379       C  0.24441208  0.77026215  0.80704417    -0.32600
C1380       C  0.23539210  0.78415158  0.80640370     0.01300
C1381       C  0.23433832  0.79267080  0.78840944    -0.24000
C1382       C  0.26797275  0.77254756  0.72058533    -0.28600
C1383       C  0.27729626  0.75884032  0.72143271     0.07000
C1384       C  0.27787914  0.75010139  0.73928417    -0.27200
H1385       H  0.24956611  0.79823030  0.72303518     0.11700
H1386       H  0.23488965  0.80696075  0.75254145     0.12800
H1387       H  0.27683634  0.73549393  0.77484366     0.11900
H1388       H  0.26224251  0.74426265  0.80435953     0.11200
H1389       H  0.24511374  0.76348546  0.82075050     0.16600
H1390       H  0.22748463  0.80342848  0.78781695     0.12500
H1391       H  0.26750633  0.77945506  0.70697383     0.15300
H1392       H  0.28484450  0.73942995  0.74005487     0.15100
C1393       C  0.04376725  0.01232336  0.73549586    -0.17800
C1394       C  0.04270001  0.00440144  0.75377494    -0.19900
C1395       C  0.04460573  0.01266166  0.77181250     0.20700
C1396       C  0.04743450  0.02909089  0.77145006    -0.02900
C1397       C  0.04855978  0.03706345  0.75301887    -0.05900
C1398       C  0.04678580  0.02862014  0.73497503     0.21000
C1399       C  0.05163525  0.05343601  0.75265835     0.19100
C1400       C  0.05339103  0.06173004  0.77069840    -0.17400
C1401       C  0.05223555  0.05383850  0.78897626    -0.19600
C1402       C  0.04931574  0.03753364  0.78949118     0.20600
C1403       C  0.04843195  0.02950504  0.80773167    -0.32600
C1404       C  0.04585313  0.01310785  0.80821059     0.01300
C1405       C  0.04387875  0.00476896  0.79019365    -0.24000
C1406       C  0.04830730  0.03655055  0.71671264    -0.28600
C1407       C  0.05168696  0.05282991  0.71617465     0.07000
C1408       C  0.05311574  0.06120533  0.73427964    -0.27200
H1409       H  0.04236301  0.00567546  0.72175595     0.11700
H1410       H  0.04048485  0.99179387  0.75379900     0.12800
H1411       H  0.05575455  0.07430901  0.77066940     0.11900
H1412       H  0.05371620  0.06047559  0.80271512     0.11200
H1413       H  0.05014827  0.03600423  0.82152348     0.16600
H1414       H  0.04173574  0.99215056  0.79045579     0.12500
H1415       H  0.04717167  0.02987393  0.70298799     0.15300
H1416       H  0.05552441  0.07375714  0.73419786     0.15100
C1417       C  0.12414909  0.87734438  0.92598575    -0.17800
C1418       C  0.11335585  0.88973246  0.92700048    -0.19900
C1419       C  0.10639314  0.89558556  0.90952644     0.20700
C1420       C  0.11025821  0.88878377  0.89087952    -0.02900
C1421       C  0.12115393  0.87630617  0.88984759    -0.05900
C1422       C  0.12816206  0.87060900  0.90747906     0.21000
C1423       C  0.12513373  0.86964757  0.87115402     0.19100
C1424       C  0.11808028  0.87539196  0.85370404    -0.17400
C1425       C  0.10726630  0.88773008  0.85473158    -0.19600
C1426       C  0.10334716  0.89453124  0.87322466     0.20600
C1427       C  0.09274904  0.90708897  0.87428505    -0.32600
C1428       C  0.08900468  0.91421115  0.89274196     0.01300
C1429       C  0.09579316  0.90823466  0.91034545    -0.24000
C1430       C  0.13918824  0.85840745  0.90628108    -0.28600
C1431       C  0.14338174  0.85182436  0.88766391     0.07000
C1432       C  0.13618914  0.85746215  0.87019253    -0.27200
H1433       H  0.12942942  0.87309113  0.93967617     0.11700
H1434       H  0.11052334  0.89479820  0.94144644     0.12800
H1435       H  0.12099001  0.87039891  0.83923950     0.11900
H1436       H  0.10203631  0.89202533  0.84103190     0.11200
H1437       H  0.08755070  0.91130423  0.86056923     0.16600
H1438       H  0.09306081  0.91351519  0.92467854     0.12500
H1439       H  0.14469655  0.85432357  0.91988101     0.15300
H1440       H  0.13916699  0.85240184  0.85579847     0.15100
C1441       C  0.23619366  0.77301373  0.25568346    -0.17800
C1442       C  0.24480384  0.77695441  0.23863532    -0.19900
C1443       C  0.25576741  0.78925675  0.23925155     0.20700
C1444       C  0.25815643  0.79761155  0.25723567    -0.02900
C1445       C  0.24951865  0.79358193  0.27448329    -0.05900
C1446       C  0.23845045  0.78125520  0.27366781     0.21000
C1447       C  0.25200519  0.80183962  0.29253707     0.19100
C1448       C  0.26297449  0.81413456  0.29314247    -0.17400
C1449       C  0.27145595  0.81819218  0.27601388    -0.19600
C1450       C  0.26915052  0.80999883  0.25799096     0.20600
C1451       C  0.27751932  0.81408906  0.24068465    -0.32600
C1452       C  0.27503890  0.80598609  0.22255294     0.01300
C1453       C  0.26425778  0.79342127  0.22212863    -0.24000
C1454       C  0.22998915  0.77724286  0.29089972    -0.28600
C1455       C  0.23265169  0.78518349  0.30905751     0.07000
C1456       C  0.24360780  0.79754664  0.30970904    -0.27200
H1457       H  0.22778785  0.76348573  0.25480894     0.11700
H1458       H  0.24283361  0.77041697  0.22492676     0.12800
H1459       H  0.26501624  0.82060285  0.30688511     0.11900
H1460       H  0.27983324  0.82774709  0.27687202     0.11200
H1461       H  0.28573458  0.82377878  0.24133918     0.16600
H1462       H  0.26230795  0.78686611  0.20846152     0.12500
H1463       H  0.22169348  0.76760236  0.29030605     0.15300
H1464       H  0.24562652  0.80382289  0.32360302     0.15100
C1465       C  0.22734016  0.79733057  0.02421266    -0.17800
C1466       C  0.23562676  0.79854342  0.04214444    -0.19900
C1467       C  0.25183003  0.80084140  0.04194045     0.20700
C1468       C  0.25980198  0.80173762  0.02351423    -0.02900
C1469       C  0.25146340  0.80041560  0.00544329    -0.05900
C1470       C  0.23514067  0.79831669  0.00580160     0.21000
C1471       C  0.25944589  0.80136980  0.98703014     0.19100
C1472       C  0.27564825  0.80361083  0.98681658    -0.17400
C1473       C  0.28389856  0.80502620  0.00472903    -0.19600
C1474       C  0.27607346  0.80419530  0.02312496     0.20600
C1475       C  0.28419390  0.80610211  0.04111557    -0.32600
C1476       C  0.27628177  0.80557937  0.05950810     0.01300
C1477       C  0.26014389  0.80263294  0.05981895    -0.24000
C1478       C  0.22691381  0.79730883  0.98774628    -0.28600
C1479       C  0.23482079  0.79820907  0.96935591     0.07000
C1480       C  0.25108740  0.80018744  0.96913807    -0.27200
H1481       H  0.21481913  0.79568563  0.02474349     0.11700
H1482       H  0.22933789  0.79784568  0.05617750     0.12800
H1483       H  0.28193128  0.80436910  0.97278274     0.11900
H1484       H  0.29638874  0.80689278  0.00419270     0.11200
H1485       H  0.29665944  0.80816374  0.04077161     0.16600
H1486       H  0.25391059  0.80233603  0.07390973     0.12500
H1487       H  0.21438424  0.79567892  0.98802375     0.15300
H1488       H  0.25725702  0.80113101  0.95504708     0.15100
C1489       C  0.50619330  0.06718379  0.25594335    -0.17800
C1490       C  0.50530506  0.05979603  0.23727396    -0.19900
C1491       C  0.49987549  0.04420560  0.23567162     0.20700
C1492       C  0.49600209  0.03571819  0.25312367    -0.02900
C1493       C  0.49705115  0.04311459  0.27199046    -0.05900
C1494       C  0.50176722  0.05906007  0.27330653     0.21000
C1495       C  0.49279459  0.03476499  0.28942651     0.19100
C1496       C  0.48794238  0.01897258  0.28788111    -0.17400
C1497       C  0.48678064  0.01168641  0.26914756    -0.19600
C1498       C  0.49052622  0.02005251  0.25167533     0.20600
C1499       C  0.48834369  0.01322704  0.23277077    -0.32600
C1500       C  0.49137698  0.02189998  0.21521346     0.01300
C1501       C  0.49765411  0.03721355  0.21687791    -0.24000
C1502       C  0.50141372  0.06677663  0.29184049    -0.28600
C1503       C  0.49668785  0.05869003  0.30910758     0.07000
C1504       C  0.49288775  0.04255697  0.30796329    -0.27200
H1505       H  0.50998574  0.07938033  0.25674684     0.11700
H1506       H  0.50843310  0.06643847  0.22402503     0.12800
H1507       H  0.48467877  0.01237994  0.30111476     0.11900
H1508       H  0.48263483  0.99960850  0.26829596     0.11200
H1509       H  0.48384694  0.00130366  0.23186360     0.16600
H1510       H  0.50024533  0.04402657  0.20360978     0.12500
H1511       H  0.50453258  0.07917159  0.29280900     0.15300
H1512       H  0.48920164  0.03632242  0.32130528     0.15100
C1513       C  0.39364040  0.91859762  0.17204882    -0.17800
C1514       C  0.38249721  0.90654775  0.17293057    -0.19900
C1515       C  0.37606834  0.90031228  0.15531186     0.20700
C1516       C  0.38085319  0.90634619  0.13663713    -0.02900
C1517       C  0.39209355  0.91850436  0.13574562    -0.05900
C1518       C  0.39855717  0.92460969  0.15352872     0.21000
C1519       C  0.39690849  0.92447985  0.11705188     0.19100
C1520       C  0.39040087  0.91833885  0.09944551    -0.17400
C1521       C  0.37927181  0.90630109  0.10032858    -0.19600
C1522       C  0.37446575  0.90019575  0.11883635     0.20600
C1523       C  0.36340782  0.88803020  0.11980878    -0.32600
C1524       C  0.35858740  0.88183751  0.13835713     0.01300
C1525       C  0.36499528  0.88812021  0.15605062    -0.24000
C1526       C  0.40986261  0.93656061  0.15247956    -0.28600
C1527       C  0.41484583  0.94251466  0.13386007     0.07000
C1528       C  0.40821389  0.93641220  0.11623815    -0.27200
H1529       H  0.39846341  0.92317076  0.18586033     0.11700
H1530       H  0.37894062  0.90207032  0.18740505     0.12800
H1531       H  0.39395969  0.92281052  0.08496924     0.11900
H1532       H  0.37445822  0.90172427  0.08651376     0.11200
H1533       H  0.35854540  0.88350006  0.10602798     0.16600
H1534       H  0.36151440  0.88348700  0.17045406     0.12500
H1535       H  0.41468823  0.94121261  0.16622477     0.15300
H1536       H  0.41195155  0.94075733  0.10179455     0.15100
C1537       C  0.48783914  0.03956273  0.98074524    -0.17800
C1538       C  0.48186634  0.03175432  0.99751219    -0.19900
C1539       C  0.48290362  0.03866826  0.01655368     0.20700
C1540       C  0.48975142  0.05375272  0.01863006    -0.02900
C1541       C  0.49576197  0.06164108  0.00170125    -0.05900
C1542       C  0.49493091  0.05443207  0.98272009     0.21000
C1543       C  0.50283133  0.07660336  0.00383582     0.19100
C1544       C  0.50355490  0.08368440  0.02280427    -0.17400
C1545       C  0.49762639  0.07586417  0.03957787    -0.19600
C1546       C  0.49087477  0.06083182  0.03766904     0.20600
C1547       C  0.48555666  0.05262514  0.05453277    -0.32600
C1548       C  0.47919185  0.03735261  0.05273181     0.01300
C1549       C  0.47758455  0.03060357  0.03359732    -0.24000
C1550       C  0.50138200  0.06209265  0.96607891    -0.28600
C1551       C  0.50869900  0.07692251  0.96805336     0.07000
C1552       C  0.50921888  0.08414198  0.98703543    -0.27200
H1553       H  0.48705603  0.03388673  0.96624512     0.11700
H1554       H  0.47661966  0.02020468  0.99561963     0.12800
H1555       H  0.50887741  0.09519663  0.02470955     0.11900
H1556       H  0.49851749  0.08148854  0.05410079     0.11200
H1557       H  0.48657029  0.05811930  0.06911069     0.16600
H1558       H  0.47271636  0.01886137  0.03199281     0.12500
H1559       H  0.50085159  0.05629147  0.95167049     0.15300
H1560       H  0.51463651  0.09559893  0.98886460     0.15100
C1561       C  0.73453770  0.30937387  0.75575206    -0.17800
C1562       C  0.72707513  0.30354940  0.77282861    -0.19900
C1563       C  0.73557321  0.30071564  0.79038905     0.20700
C1564       C  0.75179343  0.30356546  0.79063273    -0.02900
C1565       C  0.75931538  0.30943047  0.77342210    -0.05900
C1566       C  0.75061824  0.31243961  0.75595540     0.21000
C1567       C  0.77550719  0.31241003  0.77376753     0.19100
C1568       C  0.78407708  0.30922730  0.79115397    -0.17400
C1569       C  0.77662277  0.30343291  0.80821329    -0.19600
C1570       C  0.76048639  0.30073811  0.80814895     0.20600
C1571       C  0.75288562  0.29547085  0.82540417    -0.32600
C1572       C  0.73668912  0.29293978  0.82547202     0.01300
C1573       C  0.72812747  0.29532805  0.80779961    -0.24000
C1574       C  0.75814498  0.31848344  0.73901713    -0.28600
C1575       C  0.77426766  0.32154387  0.73926803     0.07000
C1576       C  0.78285733  0.31850302  0.75673099    -0.27200
H1577       H  0.72771082  0.31156920  0.74241475     0.11700
H1578       H  0.71463042  0.30139340  0.77235548     0.12800
H1579       H  0.79652886  0.31134823  0.79161575     0.11900
H1580       H  0.78345711  0.30122237  0.82153968     0.11200
H1581       H  0.75964882  0.29332991  0.83880018     0.16600
H1582       H  0.71564012  0.29339348  0.80772317     0.12500
H1583       H  0.75139233  0.32088180  0.72567970     0.15300
H1584       H  0.79531385  0.32058641  0.75700414     0.15100
C1585       C  0.62037244  0.20465301  0.86575509    -0.17800
C1586       C  0.60841039  0.19348996  0.86485338    -0.19900
C1587       C  0.60275831  0.18644507  0.88239662     0.20700
C1588       C  0.60913039  0.19074732  0.90104693    -0.02900
C1589       C  0.62120969  0.20203698  0.90195861    -0.05900
C1590       C  0.62687201  0.20895548  0.88421300     0.21000
C1591       C  0.62768714  0.20630095  0.92057173     0.19100
C1592       C  0.62193404  0.19931965  0.93812901    -0.17400
C1593       C  0.60995976  0.18810922  0.93722292    -0.19600
C1594       C  0.60351835  0.18370068  0.91874791     0.20600
C1595       C  0.59167836  0.17228019  0.91764514    -0.32600
C1596       C  0.58535903  0.16778242  0.89904942     0.01300
C1597       C  0.59092139  0.17509236  0.88153683    -0.24000
C1598       C  0.63903398  0.21994841  0.88514565    -0.28600
C1599       C  0.64578866  0.22414530  0.90357422     0.07000
C1600       C  0.63989953  0.21733248  0.92127167    -0.27200
H1601       H  0.62459433  0.20987055  0.85198844     0.11700
H1602       H  0.60362648  0.19030876  0.85040946     0.12800
H1603       H  0.62676033  0.20246090  0.95256402     0.11900
H1604       H  0.60578607  0.18283185  0.95097358     0.11200
H1605       H  0.58758567  0.16680349  0.93128626     0.16600
H1606       H  0.58613763  0.17198303  0.86710202     0.12500
H1607       H  0.64325569  0.22508364  0.87136761     0.15300
H1608       H  0.64486778  0.22041230  0.93562098     0.15100
C1609       C  0.01524574  0.06452685  0.00235669    -0.17800
C1610       C  0.01953553  0.05599344  0.98529530    -0.19900
C1611       C  0.02234503  0.03967104  0.98644260     0.20700
C1612       C  0.02073966  0.03183438  0.00491567    -0.02900
C1613       C  0.01652745  0.04046763  0.02217310    -0.05900
C1614       C  0.01378049  0.05689707  0.02086947     0.21000
C1615       C  0.01527486  0.03270328  0.04075539     0.19100
C1616       C  0.01788288  0.01634188  0.04184155    -0.17400
C1617       C  0.02193139  0.00776508  0.02469631    -0.19600
C1618       C  0.02352398  0.01542116  0.00620203     0.20600
C1619       C  0.02800154  0.00698454  0.98903687    -0.32600
C1620       C  0.02983644  0.01474543  0.97057919     0.01300
C1621       C  0.02688547  0.03110714  0.96946214    -0.24000
C1622       C  0.00988957  0.06545818  0.03814758    -0.28600
C1623       C  0.00907071  0.05788104  0.05678727     0.07000
C1624       C  0.01165608  0.04147788  0.05795507    -0.27200
H1625       H  0.01320510  0.07712819  0.00110384     0.11700
H1626       H  0.02071056  0.06218068  0.97119729     0.12800
H1627       H  0.01690457  0.01019336  0.05598870     0.11900
H1628       H  0.02398290  0.99516515  0.02594726     0.11200
H1629       H  0.03008013  0.99439182  0.99014182     0.16600
H1630       H  0.02832932  0.03734190  0.95546831     0.12500
H1631       H  0.00801449  0.07810720  0.03719225     0.15300
H1632       H  0.01084777  0.03553055  0.07226133     0.15100
C1633       C  0.73261352  0.27471778  0.27137040    -0.17800
C1634       C  0.74078811  0.26989404  0.25432438    -0.19900
C1635       C  0.75452854  0.26097334  0.25609065     0.20700
C1636       C  0.76010037  0.25684574  0.27518520    -0.02900
C1637       C  0.75183811  0.26173162  0.29242149    -0.05900
C1638       C  0.73804120  0.27071706  0.29048591     0.21000
C1639       C  0.75740620  0.25767447  0.31155318     0.19100
C1640       C  0.77115096  0.24873332  0.31329209    -0.17400
C1641       C  0.77933694  0.24389044  0.29620572    -0.19600
C1642       C  0.77392884  0.24789321  0.27705875     0.20600
C1643       C  0.78208489  0.24312650  0.25978035    -0.32600
C1644       C  0.77659062  0.24720358  0.24061072     0.01300
C1645       C  0.76276992  0.25616882  0.23904501    -0.24000
C1646       C  0.72995758  0.27565294  0.30766082    -0.28600
C1647       C  0.73546142  0.27179134  0.32686532     0.07000
C1648       C  0.74918908  0.26268293  0.32860284    -0.27200
H1649       H  0.72205267  0.28161484  0.26959688     0.11700
H1650       H  0.73635925  0.27316036  0.23973144     0.12800
H1651       H  0.77559858  0.24550883  0.32788762     0.11900
H1652       H  0.78991741  0.23702536  0.29797568     0.11200
H1653       H  0.79264976  0.23621956  0.26132512     0.16600
H1654       H  0.75832892  0.25960615  0.22456659     0.12500
H1655       H  0.71949124  0.28268310  0.30596858     0.15300
H1656       H  0.75356921  0.25942746  0.34319350     0.15100
C1657       C  0.78947121  0.26699659  0.02649069    -0.17800
C1658       C  0.78190364  0.27096130  0.00863474    -0.19900
C1659       C  0.76555779  0.27158999  0.00778441     0.20700
C1660       C  0.75679540  0.26868487  0.02529118    -0.02900
C1661       C  0.76441890  0.26467302  0.04327302    -0.05900
C1662       C  0.78082534  0.26358888  0.04379944     0.21000
C1663       C  0.75558572  0.26135385  0.06057830     0.19100
C1664       C  0.73927445  0.26244674  0.05992709    -0.17400
C1665       C  0.73172948  0.26641966  0.04213602    -0.19600
C1666       C  0.74037680  0.26931134  0.02471205     0.20600
C1667       C  0.73283058  0.27221284  0.00657509    -0.32600
C1668       C  0.74139116  0.27419741  0.98881882     0.01300
C1669       C  0.75778841  0.27443026  0.98962634    -0.24000
C1670       C  0.78826039  0.25886245  0.06151460    -0.28600
C1671       C  0.77950010  0.25524640  0.07872837     0.07000
C1672       C  0.76316965  0.25671399  0.07815067    -0.27200
H1673       H  0.80208703  0.26632486  0.02666858     0.11700
H1674       H  0.78883041  0.27322074  0.99538625     0.12800
H1675       H  0.73233582  0.26000109  0.07311179     0.11900
H1676       H  0.71910391  0.26691160  0.04190633     0.11200
H1677       H  0.72020346  0.27243719  0.00622798     0.16600
H1678       H  0.76449039  0.27600473  0.97603167     0.12500
H1679       H  0.80085856  0.25798991  0.06184993     0.15300
H1680       H  0.75626272  0.25387802  0.09122362     0.15100
C1681       C  0.90820691  0.17747038  0.18538347    -0.17800
C1682       C  0.92192778  0.16864862  0.18319417    -0.19900
C1683       C  0.92731153  0.16432108  0.16411105     0.20700
C1684       C  0.91886221  0.16905025  0.14707086    -0.02900
C1685       C  0.90500534  0.17794812  0.14928328    -0.05900
C1686       C  0.89961393  0.18212827  0.16853048     0.21000
C1687       C  0.89649741  0.18254256  0.13223561     0.19100
C1688       C  0.90193858  0.17832853  0.11314788    -0.17400
C1689       C  0.91565301  0.16953002  0.11096070    -0.19600
C1690       C  0.92415796  0.16476083  0.12782388     0.20600
C1691       C  0.93771357  0.15557688  0.12575409    -0.32600
C1692       C  0.94605945  0.15045436  0.14267878     0.01300
C1693       C  0.94084225  0.15513470  0.16181385    -0.24000
C1694       C  0.88572117  0.19083498  0.17059250    -0.28600
C1695       C  0.87709514  0.19544407  0.15364727     0.07000
C1696       C  0.88265886  0.19120416  0.13452100    -0.27200
H1697       H  0.90427467  0.18058568  0.20028039     0.11700
H1698       H  0.92828069  0.16511872  0.19645748     0.12800
H1699       H  0.89554465  0.18178761  0.09988614     0.11900
H1700       H  0.91954662  0.16635371  0.09606744     0.11200
H1701       H  0.94159121  0.15228591  0.11091400     0.16600
H1702       H  0.94703982  0.15138718  0.17506523     0.12500
H1703       H  0.88170989  0.19403477  0.18541075     0.15300
H1704       H  0.87621042  0.19447729  0.12126547     0.15100
C1705       C  0.79044064  0.79960271  0.24664730    -0.17800
C1706       C  0.80008950  0.80309064  0.26285589    -0.19900
C1707       C  0.79909604  0.79421871  0.28049903     0.20700
C1708       C  0.78835320  0.78161251  0.28178508    -0.02900
C1709       C  0.77868906  0.77801006  0.26534755    -0.05900
C1710       C  0.77972905  0.78711861  0.24778152     0.21000
C1711       C  0.76791801  0.76542060  0.26654236     0.19100
C1712       C  0.76699619  0.75650656  0.28419594    -0.17400
C1713       C  0.77648293  0.76017819  0.30059078    -0.19600
C1714       C  0.78711144  0.77277002  0.29957295     0.20600
C1715       C  0.79629224  0.77690130  0.31612874    -0.32600
C1716       C  0.80682335  0.78961614  0.31501357     0.01300
C1717       C  0.80840068  0.79799108  0.29702584    -0.24000
C1718       C  0.77007324  0.78361755  0.23158280    -0.28600
C1719       C  0.75944769  0.77098335  0.23242633     0.07000
C1720       C  0.75832649  0.76198184  0.25004889    -0.27200
H1721       H  0.79136022  0.80667847  0.23320413     0.11700
H1722       H  0.80823733  0.81282296  0.26165433     0.12800
H1723       H  0.75885100  0.74677226  0.28538206     0.11900
H1724       H  0.77542525  0.75323679  0.31412812     0.11200
H1725       H  0.79514352  0.77032513  0.32995212     0.16600
H1726       H  0.81638270  0.80789044  0.29615315     0.12500
H1727       H  0.77086000  0.79087231  0.21830058     0.15300
H1728       H  0.75021650  0.75219165  0.25083172     0.15100
C1729       C  0.03996917  0.00782513  0.53740423    -0.17800
C1730       C  0.03406289  0.00022669  0.52040369    -0.19900
C1731       C  0.03219582  0.00853772  0.50240133     0.20700
C1732       C  0.03643744  0.02463888  0.50152878    -0.02900
C1733       C  0.04244562  0.03229377  0.51866016    -0.05900
C1734       C  0.04414556  0.02386644  0.53670082     0.21000
C1735       C  0.04665304  0.04840578  0.51774320     0.19100
C1736       C  0.04483773  0.05670486  0.49975177    -0.17400
C1737       C  0.03886017  0.04914202  0.48281888    -0.19600
C1738       C  0.03461977  0.03313514  0.48356454     0.20600
C1739       C  0.02858706  0.02552333  0.46663336    -0.32600
C1740       C  0.02436760  0.00944117  0.46723641     0.01300
C1741       C  0.02618817  0.00104685  0.48527446    -0.24000
C1742       C  0.04985719  0.03166266  0.55374270    -0.28600
C1743       C  0.05392085  0.04780452  0.55302355     0.07000
C1744       C  0.05242260  0.05601247  0.53486104    -0.27200
H1745       H  0.04121734  0.00116175  0.55113424     0.11700
H1746       H  0.03090026  0.98785464  0.52136220     0.12800
H1747       H  0.04798871  0.06908010  0.49879039     0.11900
H1748       H  0.03754078  0.05583199  0.46911804     0.11200
H1749       H  0.02712229  0.03225889  0.45301938     0.16600
H1750       H  0.02309977  0.98865602  0.48600637     0.12500
H1751       H  0.05111773  0.02511680  0.56755062     0.15300
H1752       H  0.05536972  0.06844223  0.53410476     0.15100
C1753       C  0.00887132  0.06473846  0.27311758    -0.17800
C1754       C  0.00910820  0.05547529  0.29039971    -0.19900
C1755       C  0.00930806  0.03892151  0.28902346     0.20700
C1756       C  0.00927726  0.03159933  0.27007762    -0.02900
C1757       C  0.00911172  0.04095327  0.25262457    -0.05900
C1758       C  0.00887361  0.05759884  0.25417609     0.21000
C1759       C  0.00918051  0.03365478  0.23365465     0.19100
C1760       C  0.00929546  0.01709306  0.23229156    -0.17400
C1761       C  0.00938635  0.00781937  0.24960284    -0.19600
C1762       C  0.00939166  0.01495211  0.26856950     0.20600
C1763       C  0.00949799  0.00575082  0.28604012    -0.32600
C1764       C  0.00955172  0.01298236  0.30501681     0.01300
C1765       C  0.00947185  0.02959615  0.30629602    -0.24000
C1766       C  0.00867600  0.06682057  0.23677978    -0.28600
C1767       C  0.00887055  0.05964450  0.21781741     0.07000
C1768       C  0.00911943  0.04303912  0.21639215    -0.27200
H1769       H  0.00870244  0.07749552  0.27456975     0.11700
H1770       H  0.00911362  0.06126802  0.30486343     0.12800
H1771       H  0.00931991  0.01130534  0.21782616     0.11900
H1772       H  0.00946878  0.99506173  0.24815368     0.11200
H1773       H  0.00965474  0.99298470  0.28481373     0.16600
H1774       H  0.00928916  0.03538577  0.32073646     0.12500
H1775       H  0.00858270  0.07959208  0.23802788     0.15300
H1776       H  0.00903486  0.03736154  0.20186764     0.15100
C1777       C  0.92797981  0.87803545  0.42485140    -0.17800
C1778       C  0.93990173  0.88927482  0.42452887    -0.19900
C1779       C  0.94610457  0.89450634  0.40628451     0.20700
C1780       C  0.94046436  0.88811978  0.38819747    -0.02900
C1781       C  0.92839188  0.87677208  0.38852173    -0.05900
C1782       C  0.92203959  0.87185116  0.40693432     0.21000
C1783       C  0.92247983  0.87060250  0.37044745     0.19100
C1784       C  0.92897343  0.87556699  0.35222058    -0.17400
C1785       C  0.94095708  0.88680371  0.35189952    -0.19600
C1786       C  0.94665726  0.89329378  0.36979826     0.20600
C1787       C  0.95817477  0.90510126  0.36960607    -0.32600
C1788       C  0.96353949  0.91192603  0.38758978     0.01300
C1789       C  0.95760463  0.90625559  0.40586430    -0.24000
C1790       C  0.90963345  0.86109609  0.40716631    -0.28600
C1791       C  0.90321816  0.85525420  0.38923357     0.07000
C1792       C  0.90996443  0.85987279  0.37090784    -0.27200
H1793       H  0.92325017  0.87434030  0.43912935     0.11700
H1794       H  0.94413609  0.89402873  0.43856193     0.12800
H1795       H  0.92463507  0.87092133  0.33818545     0.11900
H1796       H  0.94561130  0.89058905  0.33761992     0.11200
H1797       H  0.96266248  0.90913999  0.35537791     0.16600
H1798       H  0.96163669  0.91114943  0.41988300     0.12500
H1799       H  0.90486272  0.85754783  0.42144555     0.15300
H1800       H  0.90530123  0.85546276  0.35694496     0.15100
C1801       C  0.53006575  0.02722819  0.48548224    -0.17800
C1802       C  0.53655541  0.02027020  0.50245942    -0.19900
C1803       C  0.53398088  0.02688761  0.52140715     0.20700
C1804       C  0.52474773  0.04063902  0.52328861    -0.02900
C1805       C  0.51821414  0.04768200  0.50613804    -0.05900
C1806       C  0.52092587  0.04092733  0.48718896     0.21000
C1807       C  0.50904793  0.06148306  0.50793334     0.19100
C1808       C  0.50643278  0.06806545  0.52692542    -0.17400
C1809       C  0.51289645  0.06106162  0.54395891    -0.19600
C1810       C  0.52209605  0.04737678  0.54226817     0.20600
C1811       C  0.52872924  0.04033989  0.55920425    -0.32600
C1812       C  0.53806765  0.02666883  0.55744910     0.01300
C1813       C  0.54056243  0.02001243  0.53846011    -0.24000
C1814       C  0.51454954  0.04799564  0.47020007    -0.28600
C1815       C  0.50550492  0.06184848  0.47169326     0.07000
C1816       C  0.50274711  0.06848303  0.49070590    -0.27200
H1817       H  0.53224207  0.02191438  0.47098784     0.11700
H1818       H  0.54361254  0.00972064  0.50076380     0.12800
H1819       H  0.49942200  0.07864791  0.52860279     0.11900
H1820       H  0.51074155  0.06638023  0.55845282     0.11200
H1821       H  0.52650323  0.04555184  0.57371305     0.16600
H1822       H  0.54777513  0.00957907  0.53682841     0.12500
H1823       H  0.51680588  0.04260291  0.45582239     0.15300
H1824       H  0.49580102  0.07910984  0.49218568     0.15100
C1825       C  0.54600962  0.08345564  0.75399999    -0.17800
C1826       C  0.54853226  0.07535611  0.73606430    -0.19900
C1827       C  0.54829098  0.05878339  0.73561974     0.20700
C1828       C  0.54532749  0.05026628  0.75335056    -0.02900
C1829       C  0.54266816  0.05843906  0.77140677    -0.05900
C1830       C  0.54314121  0.07510218  0.77173394     0.21000
C1831       C  0.53971589  0.04993822  0.78915331     0.19100
C1832       C  0.53937235  0.03335826  0.78866078    -0.17400
C1833       C  0.54211778  0.02524402  0.77077281    -0.19600
C1834       C  0.54519285  0.03358843  0.75309354     0.20600
C1835       C  0.54827447  0.02555225  0.73520604    -0.32600
C1836       C  0.55133390  0.03397768  0.71755297     0.01300
C1837       C  0.55115580  0.05057907  0.71780926    -0.24000
C1838       C  0.54090496  0.08313122  0.78982176    -0.28600
C1839       C  0.53816204  0.07475855  0.80762797     0.07000
C1840       C  0.53739128  0.05815823  0.80712684    -0.27200
H1841       H  0.54637940  0.09625770  0.75402329     0.11700
H1842       H  0.55079538  0.08205247  0.72257020     0.12800
H1843       H  0.53711490  0.02665968  0.80215365     0.11900
H1844       H  0.54192775  0.01243805  0.77079099     0.11200
H1845       H  0.54819703  0.01274398  0.73501746     0.16600
H1846       H  0.55363666  0.05713644  0.70426775     0.12500
H1847       H  0.54129988  0.09592854  0.78998864     0.15300
H1848       H  0.53540763  0.05158571  0.82078165     0.15100
C1849       C  0.79144319  0.77446823  0.76255972    -0.17800
C1850       C  0.78436107  0.78057831  0.74542198    -0.19900
C1851       C  0.77526868  0.79435329  0.74653918     0.20700
C1852       C  0.77310254  0.80196010  0.76510419    -0.02900
C1853       C  0.78018208  0.79574855  0.78241705    -0.05900
C1854       C  0.78949299  0.78200717  0.78108854     0.21000
C1855       C  0.77803555  0.80334798  0.80100560     0.19100
C1856       C  0.76886601  0.81707484  0.80212240    -0.17400
C1857       C  0.76190288  0.82327526  0.78492818    -0.19600
C1858       C  0.76395629  0.81581905  0.76635149     0.20600
C1859       C  0.75715060  0.82204250  0.74898142    -0.32600
C1860       C  0.75945145  0.81462346  0.73038123     0.01300
C1861       C  0.76841328  0.80070114  0.72936285    -0.24000
C1862       C  0.79675807  0.77609644  0.79828220    -0.28600
C1863       C  0.79468185  0.78362235  0.81683074     0.07000
C1864       C  0.78520251  0.79716303  0.81811201    -0.27200
H1865       H  0.79850592  0.76388352  0.76130454     0.11700
H1866       H  0.78609429  0.77459324  0.73125483     0.12800
H1867       H  0.76713018  0.82305738  0.81629178     0.11900
H1868       H  0.75493226  0.83392329  0.78615490     0.11200
H1869       H  0.75032376  0.83280219  0.74991269     0.16600
H1870       H  0.77005486  0.79469980  0.71520407     0.12500
H1871       H  0.80391489  0.76555829  0.79725328     0.15300
H1872       H  0.78367117  0.80311152  0.83234339     0.15100
C1873       C  0.76197982  0.81462840  0.49465364    -0.17800
C1874       C  0.75393381  0.81589328  0.51279802    -0.19900
C1875       C  0.76210747  0.81657285  0.53094750     0.20700
C1876       C  0.77853810  0.81568654  0.53085060    -0.02900
C1877       C  0.78666104  0.81456749  0.51253427    -0.05900
C1878       C  0.77833817  0.81411269  0.49434795     0.21000
C1879       C  0.80310788  0.81419592  0.51241612     0.19100
C1880       C  0.81127110  0.81452537  0.53058662    -0.17400
C1881       C  0.80322002  0.81549231  0.54874202    -0.19600
C1882       C  0.78687536  0.81623206  0.54902012     0.20600
C1883       C  0.77875313  0.81788154  0.56710932    -0.32600
C1884       C  0.76241011  0.81930093  0.56727446     0.01300
C1885       C  0.75416140  0.81842979  0.54914414    -0.24000
C1886       C  0.78652291  0.81345683  0.47617777    -0.28600
C1887       C  0.80293112  0.81352651  0.47592931     0.07000
C1888       C  0.81111836  0.81374217  0.49413797    -0.27200
H1889       H  0.75540790  0.81426855  0.48083125     0.11700
H1890       H  0.74131482  0.81649815  0.51261959     0.12800
H1891       H  0.82389892  0.81418360  0.53074966     0.11900
H1892       H  0.80979387  0.81588334  0.56256274     0.11200
H1893       H  0.78523379  0.81865253  0.58097209     0.16600
H1894       H  0.74155520  0.81929978  0.54916308     0.12500
H1895       H  0.78010066  0.81338119  0.46223542     0.15300
H1896       H  0.82374917  0.81355439  0.49411851     0.15100
C1897       C  0.62868450  0.90761676  0.60745787    -0.17800
C1898       C  0.64081017  0.89659701  0.60873654    -0.19900
C1899       C  0.64739209  0.89279844  0.62733260     0.20700
C1900       C  0.64142015  0.89982336  0.64486315    -0.02900
C1901       C  0.62915702  0.91091195  0.64357567    -0.05900
C1902       C  0.62291373  0.91499514  0.62475872     0.21000
C1903       C  0.62341517  0.91818120  0.66106656     0.19100
C1904       C  0.62969641  0.91405456  0.67972269    -0.17400
C1905       C  0.64187137  0.90309874  0.68099150    -0.19600
C1906       C  0.64794753  0.89607410  0.66362735     0.20600
C1907       C  0.66069282  0.88570246  0.66467053    -0.32600
C1908       C  0.66712461  0.87906884  0.64717732     0.01300
C1909       C  0.66010469  0.88242685  0.62861186    -0.24000
C1910       C  0.61130606  0.92666440  0.62350437    -0.28600
C1911       C  0.60587204  0.93439618  0.64082227     0.07000
C1912       C  0.61177340  0.92974167  0.65959271    -0.27200
H1913       H  0.62398618  0.91055210  0.59289451     0.11700
H1914       H  0.64522750  0.89125002  0.59512566     0.12800
H1915       H  0.62536743  0.91950174  0.69331838     0.11900
H1916       H  0.64669996  0.90030838  0.69553126     0.11200
H1917       H  0.66577236  0.88316145  0.67911547     0.16600
H1918       H  0.66468874  0.87732432  0.61498109     0.12500
H1919       H  0.60683104  0.92993206  0.60896177     0.15300
H1920       H  0.60764472  0.93530334  0.67317108     0.15100
loop_ 
_geom_bond_atom_site_label_1 
_geom_bond_atom_site_label_2 
_geom_bond_distance 
_geom_bond_site_symmetry_2 
_ccdc_geom_bond_type 
N1            N2   1.322       .  A
N1            C5   1.345       .  A
N1           Cu9   2.078       .  S
N2            C3   1.342       .  A
N2           Cu8   2.071       .  S
C3            C4   1.387       .  A
C3            H6   1.080       .  S
C4            C5   1.390       .  A
C4         C1908   1.488       .  S
C5            H7   1.081       .  S
Cu8          N11   2.070       .  S
Cu9          N19   2.078       .  S
Cu10         N12   2.060       .  S
Cu10         N18   2.060       .  S
N11          N12   1.319       .  A
N11          C15   1.344       .  A
N12          C13   1.343       .  A
C13          C14   1.386       .  A
C13          H16   1.082       .  S
C14          C15   1.387       .  A
C14        C1884   1.480       .  S
C15          H17   1.082       .  S
N18          N19   1.321       .  A
N18          C22   1.339       .  A
N19          C20   1.347       .  A
C20          C21   1.388       .  A
C20          H23   1.082       .  S
C21          C22   1.383       .  A
C21        C1860   1.480       .  S
C22          H24   1.081       .  S
N25          N26   1.321       .  A
N25          C29   1.348       .  A
N25         Cu33   2.090       .  S
N26          C27   1.339       .  A
N26         Cu32   2.058       .  S
C27          C28   1.385       .  A
C27          H30   1.080       .  S
C28          C29   1.393       .  A
C28        C1911   1.489       .  S
C29          H31   1.081       .  S
Cu32         N35   2.057   1_565  S
Cu33         N43   2.090   1_565  S
Cu34         N36   2.046       .  S
Cu34         N42   2.046       .  S
N35          N36   1.318       .  A
N35          C39   1.342       .  A
N36          C37   1.341       .  A
C37          C38   1.383       .  A
C37          H40   1.082       .  S
C38          C39   1.385       .  A
C38        C1836   1.472       .  S
C39          H41   1.082       .  S
N42          N43   1.321       .  A
N42          C46   1.339       .  A
N43          C44   1.347       .  A
C44          C45   1.392       .  A
C44          H47   1.081   1_545  S
C45          C46   1.381       .  A
C45        C1812   1.483       .  S
C46          H48   1.081       .  S
N49          N50   1.322       .  A
N49          C53   1.344       .  A
N49         Cu57   2.084       .  S
N50          C51   1.345       .  A
N50         Cu56   2.077       .  S
C51          C52   1.389       .  A
C51          H54   1.081       .  S
C52          C53   1.390       .  A
C52        C1788   1.491       .  S
C53          H55   1.081       .  S
Cu56         N59   2.076   1_655  S
Cu57         N67   2.083   1_655  S
Cu58         N60   2.066       .  S
Cu58         N66   2.067       .  S
N59          N60   1.320       .  A
N59          C63   1.347       .  A
N60          C61   1.341   1_565  A
C61          C62   1.386       .  A
C61          H64   1.081       .  S
C62          C63   1.389   1_545  A
C62        C1764   1.485       .  S
C63          H65   1.081       .  S
N66          N67   1.320       .  A
N66          C70   1.342   1_565  A
N67          C68   1.348       .  A
C68          C69   1.392   1_565  A
C68          H71   1.081       .  S
C69          C70   1.387       .  A
C69        C1740   1.490       .  S
C70          H72   1.081       .  S
N73          N74   1.321       .  A
N73          C77   1.348       .  A
N73         Cu81   2.084       .  S
N74          C75   1.342       .  A
N74         Cu80   2.075       .  S
C75          C76   1.389       .  A
C75          H78   1.081       .  S
C76          C77   1.391       .  A
C76        C1791   1.492       .  S
C77          H79   1.081       .  S
Cu80         N83   2.075       .  S
Cu81         N91   2.084       .  S
Cu82         N84   2.066       .  S
Cu82         N90   2.066       .  S
N83          N84   1.320       .  A
N83          C87   1.344       .  A
N84          C85   1.345       .  A
C85          C86   1.386       .  A
C85          H88   1.082       .  S
C86          C87   1.387       .  A
C86        C1887   1.482       .  S
C87          H89   1.082       .  S
N90          N91   1.323       .  A
N90          C94   1.342       .  A
N91          C92   1.347       .  A
C92          C93   1.387       .  A
C92          H95   1.082       .  S
C93          C94   1.381       .  A
C93        C1716   1.477       .  S
C94          H96   1.082       .  S
N97          N98   1.323       .  A
N97         C101   1.349       .  A
N97        Cu105   2.098       .  S
N98          C99   1.342       .  A
N98        Cu104   2.072       .  S
C99         C100   1.386       .  A
C99         H102   1.081       .  S
C100        C101   1.393       .  A
C100       C1695   1.492       .  S
C101        H103   1.081       .  S
Cu104       N107   2.070       .  S
Cu105       N115   2.097       .  S
Cu106       N108   2.062       .  S
Cu106       N114   2.062       .  S
N107        N108   1.319       .  A
N107        C111   1.345       .  A
N108        C109   1.343       .  A
C109        C110   1.387       .  A
C109        H112   1.081       .  S
C110        C111   1.388       .  A
C110       C1671   1.483       .  S
C111        H113   1.082       .  S
N114        N115   1.321       .  A
N114        C118   1.339       .  A
N115        C116   1.351       .  A
C116        C117   1.395       .  A
C116        H119   1.081       .  S
C117        C118   1.386       .  A
C117       C1644   1.492       .  S
C118        H120   1.080       .  S
N121        N122   1.322       .  A
N121        C125   1.347       .  A
N121       Cu129   2.089       .  S
N122        C123   1.343       .  A
N122       Cu128   2.071       .  S
C123        C124   1.387       .  A
C123        H126   1.081       .  S
C124        C125   1.392       .  A
C124       C1692   1.491       .  S
C125        H127   1.081       .  S
Cu128       N131   2.071   1_655  S
Cu129       N139   2.088       .  S
Cu130       N132   2.058       .  S
Cu130       N138   2.059       .  S
N131        N132   1.320       .  A
N131        C135   1.345       .  A
N132        C133   1.342       .  A
C133        C134   1.384       .  A
C133        H136   1.081       .  S
C134        C135   1.388       .  A
C134       C1767   1.480       .  S
C135        H137   1.082   1_455  S
N138        N139   1.322   1_455  A
N138        C142   1.342       .  A
N139        C140   1.347       .  A
C140        C141   1.388   1_655  A
C140        H143   1.082       .  S
C141        C142   1.381       .  A
C141       C1623   1.478       .  S
C142        H144   1.082       .  S
N145        N146   1.319       .  A
N145        C149   1.343       .  A
N145       Cu153   2.073       .  S
N146        C147   1.344       .  A
N146       Cu152   2.064       .  S
C147        C148   1.388       .  A
C147        H150   1.081       .  S
C148        C149   1.390       .  A
C148       C1599   1.488       .  S
C149        H151   1.081       .  S
Cu152       N155   2.063       .  S
Cu153       N163   2.074       .  S
Cu154       N156   2.074       .  S
Cu154       N162   2.073       .  S
N155        N156   1.321       .  A
N155        C159   1.339       .  A
N156        C157   1.349       .  A
C157        C158   1.389       .  A
C157        H160   1.082       .  S
C158        C159   1.384       .  A
C158       C1668   1.481       .  S
C159        H161   1.081       .  S
N162        N163   1.323       .  A
N162        C166   1.342       .  A
N163        C164   1.346       .  A
C164        C165   1.386       .  A
C164        H167   1.082       .  S
C165        C166   1.385       .  A
C165       C1572   1.479       .  S
C166        H168   1.081       .  S
N169        N170   1.320       .  A
N169        C173   1.346       .  A
N169       Cu177   2.078       .  S
N170        C171   1.341       .  A
N170       Cu176   2.061       .  S
C171        C172   1.387       .  A
C171        H174   1.081       .  S
C172        C173   1.390       .  A
C172       C1596   1.487       .  S
C173        H175   1.081       .  S
Cu176       N179   2.059       .  S
Cu177       N187   2.080       .  S
Cu178       N180   2.070       .  S
Cu178       N186   2.071       .  S
N179        N180   1.320       .  A
N179        C183   1.341       .  A
N180        C181   1.345       .  A
C181        C182   1.387       .  A
C181        H184   1.082       .  S
C182        C183   1.384       .  A
C182       C1839   1.479       .  S
C183        H185   1.082       .  S
N186        N187   1.321       .  A
N186        C190   1.343       .  A
N187        C188   1.346       .  A
C188        C189   1.390       .  A
C188        H191   1.081       .  S
C189        C190   1.387       .  A
C189       C1551   1.489       .  S
C190        H192   1.081       .  S
N193        N194   1.321       .  A
N193        C197   1.345       .  A
N193       Cu201   2.085       .  S
N194        C195   1.343       .  A
N194       Cu200   2.061       .  S
C195        C196   1.385       .  A
C195        H198   1.081       .  S
C196        C197   1.391       .  A
C196       C1527   1.486       .  S
C197        H199   1.081       .  S
Cu200       N203   2.060   1_565  S
Cu201       N211   2.085   1_565  S
Cu202       N204   2.071       .  S
Cu202       N210   2.071       .  S
N203        N204   1.319       .  A
N203        C207   1.342       .  A
N204        C205   1.345       .  A
C205        C206   1.391       .  A
C205        H208   1.081       .  S
C206        C207   1.388       .  A
C206       C1500   1.487       .  S
C207        H209   1.081   1_545  S
N210        N211   1.322       .  A
N210        C214   1.342       .  A
N211        C212   1.348       .  A
C212        C213   1.390       .  A
C212        H215   1.082       .  S
C213        C214   1.385       .  A
C213       C1548   1.485       .  S
C214        H216   1.081       .  S
N217        N218   1.322       .  A
N217        C221   1.346       .  A
N217       Cu225   2.086       .  S
N218        C219   1.343       .  A
N218       Cu224   2.069       .  S
C219        C220   1.387       .  A
C219        H222   1.081       .  S
C220        C221   1.390       .  A
C220       C1524   1.488       .  S
C221        H223   1.081       .  S
Cu224       N227   2.068       .  S
Cu225       N235   2.087       .  S
Cu226       N228   2.060       .  S
Cu226       N234   2.061       .  S
N227        N228   1.320       .  A
N227        C231   1.343       .  A
N228        C229   1.342       .  A
C229        C230   1.384       .  A
C229        H232   1.082       .  S
C230        C231   1.386       .  A
C230       C1476   1.477       .  S
C231        H233   1.082       .  S
N234        N235   1.320       .  A
N234        C238   1.341       .  A
N235        C236   1.348       .  A
C236        C237   1.393       .  A
C236        H239   1.081       .  S
C237        C238   1.386       .  A
C237       C1452   1.490       .  S
C238        H240   1.081       .  S
N241        N242   1.321       .  A
N241        C245   1.348       .  A
N241       Cu249   2.084       .  S
N242        C243   1.339       .  A
N242       Cu248   2.058       .  S
C243        C244   1.385       .  A
C243        H246   1.080       .  S
C244        C245   1.392       .  A
C244       C1428   1.487       .  S
C245        H247   1.081       .  S
Cu248       N251   2.058       .  S
Cu249       N259   2.085       .  S
Cu250       N252   2.059   1_545  S
Cu250       N258   2.061   1_545  S
N251        N252   1.319       .  A
N251        C255   1.343       .  A
N252        C253   1.342   1_565  A
C253        C254   1.385       .  A
C253        H256   1.082       .  S
C254        C255   1.385   1_545  A
C254       C1404   1.476       .  S
C255        H257   1.082       .  S
N258        N259   1.321       .  A
N258        C262   1.341   1_565  A
N259        C260   1.347       .  A
C260        C261   1.391   1_565  A
C260        H263   1.081       .  S
C261        C262   1.385       .  A
C261       C1620   1.486       .  S
C262        H264   1.081       .  S
N265        N266   1.322       .  A
N265        C269   1.346       .  A
N265       Cu273   2.082       .  S
N266        C267   1.341       .  A
N266       Cu272   2.057       .  S
C267        C268   1.383       .  A
C267        H270   1.081       .  S
C268        C269   1.390       .  A
C268       C1431   1.482       .  S
C269        H271   1.081       .  S
Cu272       N275   2.056       .  S
Cu273       N283   2.082       .  S
Cu274       N276   2.064       .  S
Cu274       N282   2.066       .  S
N275        N276   1.319       .  A
N275        C279   1.343       .  A
N276        C277   1.342       .  A
C277        C278   1.385       .  A
C277        H280   1.082       .  S
C278        C279   1.384       .  A
C278       C1479   1.476       .  S
C279        H281   1.082       .  S
N282        N283   1.322       .  A
N282        C286   1.342       .  A
N283        C284   1.347       .  A
C284        C285   1.388       .  A
C284        H287   1.082       .  S
C285        C286   1.384       .  A
C285       C1380   1.481       .  S
C286        H288   1.082       .  S
N289        N290   1.322       .  A
N289        C293   1.350       .  A
N289       Cu297   2.099       .  S
N290        C291   1.340       .  A
N290       Cu296   2.059       .  S
C291        C292   1.382       .  A
C291        H294   1.081       .  S
C292        C293   1.393       .  A
C292       C1356   1.486       .  S
C293        H295   1.082       .  S
Cu296       N299   2.059       .  S
Cu297       N307   2.100       .  S
Cu298       N300   2.059       .  S
Cu298       N306   2.060       .  S
N299        N300   1.317       .  A
N299        C303   1.342       .  A
N300        C301   1.342       .  A
C301        C302   1.388       .  A
C301        H304   1.081       .  S
C302        C303   1.389       .  A
C302       C1407   1.483       .  S
C303        H305   1.081       .  S
N306        N307   1.322       .  A
N306        C310   1.342       .  A
N307        C308   1.349       .  A
C308        C309   1.393       .  A
C308        H311   1.081       .  S
C309        C310   1.383       .  A
C309       C1743   1.487       .  S
C310        H312   1.081       .  S
N313        N314   1.321       .  A
N313        C317   1.346       .  A
N313       Cu321   2.078       .  S
N314        C315   1.343       .  A
N314       Cu320   2.067       .  S
C315        C316   1.388       .  A
C315        H318   1.081       .  S
C316        C317   1.390       .  A
C316       C1359   1.488       .  S
C317        H319   1.081       .  S
Cu320       N323   2.066       .  S
Cu321       N331   2.078       .  S
Cu322       N324   2.068       .  S
Cu322       N330   2.069       .  S
N323        N324   1.321       .  A
N323        C327   1.342       .  A
N324        C325   1.345       .  A
C325        C326   1.385       .  A
C325        H328   1.082       .  S
C326        C327   1.384       .  A
C326       C1335   1.475       .  S
C327        H329   1.082       .  S
N330        N331   1.322       .  A
N330        C334   1.342       .  A
N331        C332   1.347       .  A
C332        C333   1.388       .  A
C332        H335   1.082       .  S
C333        C334   1.386       .  A
C333       C1308   1.483       .  S
C334        H336   1.081       .  S
N337        N338   1.321       .  A
N337        C341   1.345       .  A
N337       Cu345   2.079       .  S
N338        C339   1.344       .  A
N338       Cu344   2.068       .  S
C339        C340   1.387       .  A
C339        H342   1.081       .  S
C340        C341   1.389       .  A
C340       C1284   1.487       .  S
C341        H343   1.081       .  S
Cu344       N347   2.067       .  S
Cu345       N355   2.078       .  S
Cu346       N348   2.057       .  S
Cu346       N354   2.057       .  S
N347        N348   1.320       .  A
N347        C351   1.343       .  A
N348        C349   1.342       .  A
C349        C350   1.386       .  A
C349        H352   1.081       .  S
C350        C351   1.387       .  A
C350       C1332   1.480       .  S
C351        H353   1.081       .  S
N354        N355   1.321       .  A
N354        C358   1.340       .  A
N355        C356   1.346       .  A
C356        C357   1.388       .  A
C356        H359   1.082       .  S
C357        C358   1.382       .  A
C357       C1260   1.478       .  S
C358        H360   1.082       .  S
N361        N362   1.322       .  A
N361        C365   1.344       .  A
N361       Cu369   2.074       .  S
N362        C363   1.344       .  A
N362       Cu368   2.079       .  S
C363        C364   1.390       .  A
C363        H366   1.081       .  S
C364        C365   1.388       .  A
C364       C1287   1.489       .  S
C365        H367   1.081       .  S
Cu368       N371   2.078       .  S
Cu369       N379   2.073       .  S
Cu370       N372   2.055       .  S
Cu370       N378   2.055       .  S
N371        N372   1.321       .  A
N371        C375   1.344       .  A
N372        C373   1.344       .  A
C373        C374   1.381       .  A
C373        H376   1.082       .  S
C374        C375   1.385       .  A
C374       C1503   1.473       .  S
C375        H377   1.082       .  S
N378        N379   1.320       .  A
N378        C382   1.338       .  A
N379        C380   1.346       .  A
C380        C381   1.391       .  A
C380        H383   1.081       .  S
C381        C382   1.386       .  A
C381       C1815   1.485       .  S
C382        H384   1.080       .  S
N385        N386   1.322       .  A
N385        C389   1.343       .  A
N385       Cu393   2.069       .  S
N386        C387   1.342       .  A
N386       Cu392   2.066       .  S
C387        C388   1.385       .  A
C387        H390   1.081       .  S
C388        C389   1.387       .  A
C388       C1236   1.480       .  S
C389        H391   1.081       .  S
Cu392       N395   2.066       .  S
Cu393       N403   2.069       .  S
Cu394       N396   2.060       .  S
Cu394       N402   2.059       .  S
N395        N396   1.319       .  A
N395        C399   1.345       .  A
N396        C397   1.340       .  A
C397        C398   1.387       .  A
C397        H400   1.081       .  S
C398        C399   1.389       .  A
C398       C1212   1.484       .  S
C399        H401   1.081       .  S
N402        N403   1.320       .  A
N402        C406   1.341       .  A
N403        C404   1.345       .  A
C404        C405   1.388       .  A
C404        H407   1.082       .  S
C405        C406   1.383       .  A
C405       C1575   1.478       .  S
C406        H408   1.082       .  S
N409        N410   1.323       .  A
N409        C413   1.346       .  A
N409       Cu417   2.081       .  S
N410        C411   1.341       .  A
N410       Cu416   2.062       .  S
C411        C412   1.381       .  A
C411        H414   1.082       .  S
C412        C413   1.387       .  A
C412       C1239   1.477       .  S
C413        H415   1.082       .  S
Cu416       N419   2.062       .  S
Cu417       N427   2.081       .  S
Cu418       N420   2.070       .  S
Cu418       N426   2.071       .  S
N419        N420   1.319       .  A
N419        C423   1.345       .  A
N420        C421   1.343   1_655  A
C421        C422   1.386   1_455  A
C421        H424   1.082       .  S
C422        C423   1.385       .  A
C422       C1188   1.479   1_655  S
C423        H425   1.082       .  S
N426        N427   1.322       .  A
N426        C430   1.342   1_655  A
N427        C428   1.348       .  A
C428        C429   1.389       .  A
C428        H431   1.081       .  S
C429        C430   1.385   1_655  A
C429       C1164   1.484       .  S
C430        H432   1.081       .  S
N433        N434   1.321       .  A
N433        C437   1.346       .  A
N433       Cu441   2.090       .  S
N434        C435   1.344       .  A
N434       Cu440   2.065       .  S
C435        C436   1.386       .  A
C435        H438   1.081       .  S
C436        C437   1.392       .  A
C436       C1143   1.489       .  S
C437        H439   1.081       .  S
Cu440       N443   2.065       .  S
Cu441       N451   2.092       .  S
Cu442       N444   2.067       .  S
Cu442       N450   2.068       .  S
N443        N444   1.320       .  A
N443        C447   1.341       .  A
N444        C445   1.347       .  A
C445        C446   1.386       .  A
C445        H448   1.082       .  S
C446        C447   1.384       .  A
C446       C1215   1.478       .  S
C447        H449   1.082       .  S
N450        N451   1.322       .  A
N450        C454   1.342       .  A
N451        C452   1.348       .  A
C452        C453   1.393       .  A
C452        H455   1.081       .  S
C453        C454   1.386       .  A
C453       C1647   1.490       .  S
C454        H456   1.081       .  S
N457        N458   1.320       .  A
N457        C461   1.346       .  A
N457       Cu465   2.076       .  S
N458        C459   1.342       .  A
N458       Cu464   2.065       .  S
C459        C460   1.389       .  A
C459        H462   1.080       .  S
C460        C461   1.391       .  A
C460       C1140   1.489       .  S
C461        H463   1.081       .  S
Cu464       N467   2.065       .  S
Cu465       N475   2.076       .  S
Cu466       N468   2.069       .  S
Cu466       N474   2.070       .  S
N467        N468   1.321       .  A
N467        C471   1.343       .  A
N468        C469   1.344       .  A
C469        C470   1.386       .  A
C469        H472   1.082       .  S
C470        C471   1.385       .  A
C470       C1116   1.479       .  S
C471        H473   1.082       .  S
N474        N475   1.321       .  A
N474        C478   1.345       .  A
N475        C476   1.343       .  A
C476        C477   1.389       .  A
C476        H479   1.081       .  S
C477        C478   1.389       .  A
C477       C1092   1.489       .  S
C478        H480   1.081       .  S
N481        N482   1.323       .  A
N481        C485   1.343       .  A
N481       Cu489   2.077       .  S
N482        C483   1.342       .  A
N482       Cu488   2.059       .  S
C483        C484   1.383       .  A
C483        H486   1.081       .  S
C484        C485   1.387       .  A
C484       C1068   1.479       .  S
C485        H487   1.081       .  S
Cu488       N491   2.058       .  S
Cu489       N499   2.077       .  S
Cu490       N492   2.055       .  S
Cu490       N498   2.055       .  S
N491        N492   1.319       .  A
N491        C495   1.343       .  A
N492        C493   1.342       .  A
C493        C494   1.383       .  A
C493        H496   1.082       .  S
C494        C495   1.384       .  A
C494       C1047   1.471       .  S
C495        H497   1.082       .  S
N498        N499   1.320       .  A
N498        C502   1.337       .  A
N499        C500   1.349       .  A
C500        C501   1.390       .  A
C500        H503   1.082       .  S
C501        C502   1.382       .  A
C501       C1719   1.481       .  S
C502        H504   1.081       .  S
N505        N506   1.321       .  A
N505        C509   1.344       .  A
N505       Cu513   2.061       .  S
N506        C507   1.339       .  A
N506       Cu512   2.067       .  S
C507        C508   1.387       .  A
C507        H510   1.080       .  S
C508        C509   1.387       .  A
C508       C1071   1.482       .  S
C509        H511   1.081       .  S
Cu512       N515   2.066       .  S
Cu513       N523   2.060       .  S
Cu514       N516   2.048       .  S
Cu514       N522   2.048       .  S
N515        N516   1.318       .  A
N515        C519   1.345       .  A
N516        C517   1.341       .  A
C517        C518   1.382       .  A
C517        H520   1.082       .  S
C518        C519   1.386       .  A
C518       C1119   1.474       .  S
C519        H521   1.082       .  S
N522        N523   1.320       .  A
N522        C526   1.337       .  A
N523        C524   1.344       .  A
C524        C525   1.386       .  A
C524        H527   1.082       .  S
C525        C526   1.381       .  A
C525       C1020   1.471       .  S
C526        H528   1.081       .  S
N529        N530   1.321       .  A
N529        C533   1.345       .  A
N529       Cu537   2.076       .  S
N530        C531   1.341       .  A
N530       Cu536   2.063       .  S
C531        C532   1.385       .  A
C531        H534   1.081       .  S
C532        C533   1.389       .  A
C532        C996   1.484       .  S
C533        H535   1.081       .  S
Cu536       N539   2.063       .  S
Cu537       N547   2.075       .  S
Cu538       N540   2.060       .  S
Cu538       N546   2.061       .  S
N539        N540   1.319       .  A
N539        C543   1.343       .  A
N540        C541   1.341       .  A
C541        C542   1.388       .  A
C541        H544   1.081       .  S
C542        C543   1.389       .  A
C542       C1044   1.484       .  S
C543        H545   1.081       .  S
N546        N547   1.321       .  A
N546        C550   1.342       .  A
N547        C548   1.345       .  A
C548        C549   1.386       .  A
C548        H551   1.082       .  S
C549        C550   1.382       .  A
C549       C1863   1.476       .  S
C550        H552   1.082       .  S
N553        N554   1.322       .  A
N553        C557   1.345       .  A
N553       Cu561   2.073       .  S
N554        C555   1.344       .  A
N554       Cu560   2.077       .  S
C555        C556   1.387       .  A
C555        H558   1.081       .  S
C556        C557   1.387       .  A
C556        C999   1.484       .  S
C557        H559   1.081       .  S
Cu560       N563   2.077   1_655  S
Cu561       N571   2.072   1_655  S
Cu562       N564   2.053       .  S
Cu562       N570   2.052       .  S
N563        N564   1.320       .  A
N563        C567   1.345       .  A
N564        C565   1.342       .  A
C565        C566   1.384       .  A
C565        H568   1.081       .  S
C566        C567   1.389       .  A
C566       C1191   1.480       .  S
C567        H569   1.082   1_455  S
N570        N571   1.320       .  A
N570        C574   1.340       .  A
N571        C572   1.344       .  A
C572        C573   1.390       .  A
C572        H575   1.081   1_455  S
C573        C574   1.384       .  A
C573        C972   1.481       .  S
C574        H576   1.081       .  S
N577        N578   1.322       .  A
N577        C581   1.349       .  A
N577       Cu585   2.091       .  S
N578        C579   1.341       .  A
N578       Cu584   2.068       .  S
C579        C580   1.385       .  A
C579        H582   1.081       .  S
C580        C581   1.392       .  A
C580        C948   1.488       .  S
C581        H583   1.081       .  S
Cu584       N587   2.067       .  S
Cu585       N595   2.090       .  S
Cu586       N588   2.063       .  S
Cu586       N594   2.063       .  S
N587        N588   1.319       .  A
N587        C591   1.346       .  A
N588        C589   1.341       .  A
C589        C590   1.385       .  A
C589        H592   1.081       .  S
C590        C591   1.387       .  A
C590        C924   1.480       .  S
C591        H593   1.082       .  S
N594        N595   1.322       .  A
N594        C598   1.343       .  A
N595        C596   1.347       .  A
C596        C597   1.390       .  A
C596        H599   1.082       .  S
C597        C598   1.384       .  A
C597       C1383   1.484       .  S
C598        H600   1.082       .  S
N601        N602   1.323       .  A
N601        C605   1.347       .  A
N601       Cu609   2.089       .  S
N602        C603   1.343       .  A
N602       Cu608   2.067       .  S
C603        C604   1.383       .  A
C603        H606   1.082       .  S
C604        C605   1.389       .  A
C604        C951   1.483       .  S
C605        H607   1.082       .  S
Cu608       N611   2.065       .  S
Cu609       N619   2.088       .  S
Cu610       N612   2.057       .  S
Cu610       N618   2.058       .  S
N611        N612   1.319       .  A
N611        C615   1.344       .  A
N612        C613   1.340       .  A
C613        C614   1.384       .  A
C613        H616   1.082       .  S
C614        C615   1.386       .  A
C614        C900   1.475       .  S
C615        H617   1.082       .  S
N618        N619   1.321       .  A
N618        C622   1.341       .  A
N619        C620   1.348       .  A
C620        C621   1.391       .  A
C620        H623   1.081       .  S
C621        C622   1.385       .  A
C621       C1095   1.486       .  S
C622        H624   1.081       .  S
N625        N626   1.322       .  A
N625        C629   1.345       .  A
N625       Cu633   2.084       .  S
N626        C627   1.343       .  A
N626       Cu632   2.066       .  S
C627        C628   1.386       .  A
C627        H630   1.081       .  S
C628        C629   1.390       .  A
C628        C879   1.487       .  S
C629        H631   1.081       .  S
Cu632       N635   2.064       .  S
Cu633       N643   2.084       .  S
Cu634       N636   2.061       .  S
Cu634       N642   2.061       .  S
N635        N636   1.320       .  A
N635        C639   1.344       .  A
N636        C637   1.342       .  A
C637        C638   1.383       .  A
C637        H640   1.082       .  S
C638        C639   1.384       .  A
C638        C852   1.472       .  S
C639        H641   1.082       .  S
N642        N643   1.321       .  A
N642        C646   1.342       .  A
N643        C644   1.347       .  A
C644        C645   1.390       .  A
C644        H647   1.081       .  S
C645        C646   1.384       .  A
C645       C1167   1.484       .  S
C646        H648   1.081       .  S
N649        N650   1.321       .  A
N649        C653   1.347       .  A
N649       Cu657   2.085       .  S
N650        C651   1.341       .  A
N650       Cu656   2.059       .  S
C651        C652   1.385       .  A
C651        H654   1.081       .  S
C652        C653   1.391       .  A
C652        C876   1.485       .  S
C653        H655   1.081       .  S
Cu656       N659   2.059       .  S
Cu657       N667   2.087       .  S
Cu658       N660   2.069       .  S
Cu658       N666   2.070       .  S
N659        N660   1.320       .  A
N659        C663   1.341       .  A
N660        C661   1.346       .  A
C661        C662   1.386       .  A
C661        H664   1.082       .  S
C662        C663   1.384       .  A
C662        C927   1.477       .  S
C663        H665   1.082       .  S
N666        N667   1.323       .  A
N666        C670   1.343       .  A
N667        C668   1.347       .  A
C668        C669   1.388       .  A
C668        H671   1.082       .  S
C669        C670   1.383       .  A
C669       C1455   1.481       .  S
C670        H672   1.082       .  S
N673        N674   1.322       .  A
N673        C677   1.347       .  A
N673       Cu681   2.089       .  S
N674        C675   1.340       .  A
N674       Cu680   2.054       .  S
C675        C676   1.382       .  A
C675        H678   1.081       .  S
C676        C677   1.391       .  A
C676        C828   1.482       .  S
C677        H679   1.081       .  S
Cu680       N683   2.054       .  S
Cu681       N691   2.089       .  S
Cu682       N684   2.054       .  S
Cu682       N690   2.055       .  S
N683        N684   1.317       .  A
N683        C687   1.342       .  A
N684        C685   1.339       .  A
C685        C686   1.387       .  A
C685        H688   1.080       .  S
C686        C687   1.388       .  A
C686        C807   1.482       .  S
C687        H689   1.081       .  S
N690        N691   1.321       .  A
N690        C694   1.342       .  A
N691        C692   1.347       .  A
C692        C693   1.392       .  A
C692        H695   1.081       .  S
C693        C694   1.383       .  A
C693       C1311   1.484       .  S
C694        H696   1.081       .  S
N697        N698   1.320       .  A
N697        C701   1.344       .  A
N697       Cu705   2.060       .  S
N698        C699   1.338       .  A
N698       Cu704   2.060       .  S
C699        C700   1.386       .  A
C699        H702   1.080       .  S
C700        C701   1.388       .  A
C700        C831   1.482       .  S
C701        H703   1.081       .  S
Cu704       N707   2.060       .  S
Cu705       N715   2.060       .  S
Cu706       N708   2.051       .  S
Cu706       N714   2.052       .  S
N707        N708   1.319       .  A
N707        C711   1.342       .  A
N708        C709   1.342       .  A
C709        C710   1.383       .  A
C709        H712   1.082       .  S
C710        C711   1.385       .  A
C710        C903   1.473       .  S
C711        H713   1.082       .  S
N714        N715   1.321       .  A
N714        C718   1.339       .  A
N715        C716   1.341       .  A
C716        C717   1.385       .  A
C716        H719   1.081       .  S
C717        C718   1.382       .  A
C717       C1023   1.473       .  S
C718        H720   1.081       .  S
N721        N722   1.324       .  A
N721        C725   1.347       .  A
N721       Cu729   2.090       .  S
N722        C723   1.342       .  A
N722       Cu728   2.063       .  S
C723        C724   1.380       .  A
C723        H726   1.082       .  S
C724        C725   1.387       .  A
C724        C783   1.477       .  S
C725        H727   1.082       .  S
Cu728       N731   2.060       .  S
Cu729       N739   2.088       .  S
Cu730       N732   2.043       .  S
Cu730       N738   2.043       .  S
N731        N732   1.319       .  A
N731        C735   1.344       .  A
N732        C733   1.339       .  A
C733        C734   1.379       .  A
C733        H736   1.082       .  S
C734        C735   1.384       .  A
C734        C804   1.466       .  S
C735        H737   1.082       .  S
N738        N739   1.319       .  A
N738        C742   1.337       .  A
N739        C740   1.348       .  A
C740        C741   1.394       .  A
C740        H743   1.081       .  S
C741        C742   1.383       .  A
C741       C1263   1.485       .  S
C742        H744   1.080       .  S
N745        N746   1.321       .  A
N745        C749   1.344       .  A
N745       Cu753   2.070       .  S
N746        C747   1.343       .  A
N746       Cu752   2.071       .  S
C747        C748   1.387       .  A
C747        H750   1.081       .  S
C748        C749   1.387       .  A
C748        C780   1.484       .  S
C749        H751   1.081       .  S
Cu752       N755   2.069       .  S
Cu753       N763   2.069       .  S
Cu754       N756   2.055       .  S
Cu754       N762   2.055       .  S
N755        N756   1.320       .  A
N755        C759   1.344       .  A
N756        C757   1.341       .  A
C757        C758   1.384       .  A
C757        H760   1.081       .  S
C758        C759   1.387       .  A
C758        C855   1.479       .  S
C759        H761   1.082       .  S
N762        N763   1.319       .  A
N762        C766   1.340       .  A
N763        C764   1.344       .  A
C764        C765   1.389       .  A
C764        H767   1.081       .  S
C765        C766   1.385       .  A
C765        C975   1.482       .  S
C766        H768   1.081       .  S
C769        C770   1.399       .  A
C769        C774   1.404       .  A
C769        H785   1.084       .  S
C770        C771   1.404       .  A
C770        H786   1.084       .  S
C771        C781   1.402       .  A
C771        C772   1.411       .  A
C772        C778   1.410       .  A
C772        C773   1.411       .  A
C773        C775   1.412       .  A
C773        C774   1.411       .  A
C774        C782   1.401       .  A
C775        C784   1.402       .  A
C775        C776   1.403       .  A
C776        C777   1.398       .  A
C776        H787   1.084       .  S
C777        C778   1.403       .  A
C777        H788   1.084       .  S
C778        C779   1.401       .  A
C779        C780   1.408       .  A
C779        H789   1.082       .  S
C780        C781   1.408       .  A
C781        H790   1.082       .  S
C782        C783   1.407       .  A
C782        H791   1.084       .  S
C783        C784   1.404       .  A
C784        H792   1.084       .  S
C793        C794   1.397       .  A
C793        C798   1.403       .  A
C793        H809   1.084       .  S
C794        C795   1.403       .  A
C794        H810   1.084       .  S
C795        C805   1.398       .  A
C795        C796   1.411       .  A
C796        C802   1.413       .  A
C796        C797   1.408       .  A
C797        C799   1.409   1_554  A
C797        C798   1.411       .  A
C798        C806   1.401   1_554  A
C799        C808   1.397       .  A
C799        C800   1.403       .  A
C800        C801   1.396   1_556  A
C800        H811   1.084       .  S
C801        C802   1.402       .  A
C801        H812   1.084       .  S
C802        C803   1.399       .  A
C803        C804   1.401       .  A
C803        H813   1.084       .  S
C804        C805   1.404       .  A
C805        H814   1.084       .  S
C806        C807   1.408       .  A
C806        H815   1.082       .  S
C807        C808   1.407       .  A
C808        H816   1.081       .  S
C817        C818   1.399       .  A
C817        C822   1.404       .  A
C817        H833   1.084       .  S
C818        C819   1.404       .  A
C818        H834   1.084       .  S
C819        C829   1.401       .  A
C819        C820   1.409       .  A
C820        C826   1.412       .  A
C820        C821   1.409       .  A
C821        C823   1.409       .  A
C821        C822   1.411       .  A
C822        C830   1.403       .  A
C823        C832   1.396       .  A
C823        C824   1.403       .  A
C824        C825   1.396       .  A
C824        H835   1.084       .  S
C825        C826   1.402       .  A
C825        H836   1.084       .  S
C826        C827   1.400       .  A
C827        C828   1.405       .  A
C827        H837   1.083       .  S
C828        C829   1.410       .  A
C829        H838   1.082       .  S
C830        C831   1.408       .  A
C830        H839   1.082       .  S
C831        C832   1.407       .  A
C832        H840   1.081       .  S
C841        C842   1.397       .  A
C841        C846   1.403       .  A
C841        H857   1.084       .  S
C842        C843   1.403       .  A
C842        H858   1.084       .  S
C843        C853   1.399       .  A
C843        C844   1.411       .  A
C844        C850   1.412       .  A
C844        C845   1.409       .  A
C845        C847   1.410       .  A
C845        C846   1.411       .  A
C846        C854   1.401       .  A
C847        C856   1.400       .  A
C847        C848   1.404       .  A
C848        C849   1.398       .  A
C848        H859   1.084       .  S
C849        C850   1.403       .  A
C849        H860   1.084       .  S
C850        C851   1.401       .  A
C851        C852   1.404       .  A
C851        H861   1.084       .  S
C852        C853   1.405       .  A
C853        H862   1.084       .  S
C854        C855   1.405       .  A
C854        H863   1.083       .  S
C855        C856   1.407       .  A
C856        H864   1.083       .  S
C865        C866   1.400       .  A
C865        C870   1.404       .  A
C865        H881   1.084       .  S
C866        C867   1.404       .  A
C866        H882   1.084       .  S
C867        C877   1.405       .  A
C867        C868   1.412       .  A
C868        C874   1.410       .  A
C868        C869   1.412       .  A
C869        C871   1.411       .  A
C869        C870   1.410       .  A
C870        C878   1.403       .  A
C871        C880   1.402       .  A
C871        C872   1.403       .  A
C872        C873   1.397       .  A
C872        H883   1.084       .  S
C873        C874   1.403       .  A
C873        H884   1.084       .  S
C874        C875   1.400       .  A
C875        C876   1.409       .  A
C875        H885   1.082       .  S
C876        C877   1.407       .  A
C877        H886   1.083       .  S
C878        C879   1.410       .  A
C878        H887   1.082       .  S
C879        C880   1.407       .  A
C880        H888   1.082       .  S
C889        C890   1.396       .  A
C889        C894   1.402       .  A
C889        H905   1.084       .  S
C890        C891   1.402       .  A
C890        H906   1.084       .  S
C891        C901   1.397       .  A
C891        C892   1.410       .  A
C892        C898   1.412       .  A
C892        C893   1.408       .  A
C893        C895   1.411       .  A
C893        C894   1.412       .  A
C894        C902   1.398       .  A
C895        C904   1.401       .  A
C895        C896   1.404       .  A
C896        C897   1.399       .  A
C896        H907   1.084       .  S
C897        C898   1.403       .  A
C897        H908   1.083       .  S
C898        C899   1.403       .  A
C899        C900   1.406       .  A
C899        H909   1.084       .  S
C900        C901   1.405       .  A
C901        H910   1.083       .  S
C902        C903   1.403       .  A
C902        H911   1.084       .  S
C903        C904   1.406       .  A
C904        H912   1.084       .  S
C913        C914   1.401       .  A
C913        C918   1.404       .  A
C913        H929   1.084       .  S
C914        C915   1.404       .  A
C914        H930   1.083       .  S
C915        C925   1.405       .  A
C915        C916   1.412       .  A
C916        C922   1.410       .  A
C916        C917   1.410       .  A
C917        C919   1.411       .  A
C917        C918   1.412       .  A
C918        C926   1.405       .  A
C919        C928   1.397       .  A
C919        C920   1.402       .  A
C920        C921   1.395       .  A
C920        H931   1.084       .  S
C921        C922   1.402       .  A
C921        H932   1.084       .  S
C922        C923   1.397       .  A
C923        C924   1.405       .  A
C923        H933   1.083       .  S
C924        C925   1.408       .  A
C925        H934   1.084       .  S
C926        C927   1.407       .  A
C926        H935   1.084       .  S
C927        C928   1.404       .  A
C928        H936   1.084       .  S
C937        C938   1.398       .  A
C937        C942   1.403       .  A
C937        H953   1.084       .  S
C938        C939   1.404       .  A
C938        H954   1.084       .  S
C939        C949   1.401       .  A
C939        C940   1.409       .  A
C940        C946   1.412       .  A
C940        C941   1.412       .  A
C941        C943   1.410       .  A
C941        C942   1.412       .  A
C942        C950   1.403       .  A
C943        C952   1.404       .  A
C943        C944   1.404       .  A
C944        C945   1.400       .  A
C944        H955   1.084       .  S
C945        C946   1.404       .  A
C945        H956   1.084       .  S
C946        C947   1.406       .  A
C947        C948   1.408       .  A
C947        H957   1.083       .  S
C948        C949   1.409       .  A
C949        H958   1.082       .  S
C950        C951   1.406       .  A
C950        H959   1.083       .  S
C951        C952   1.408       .  A
C952        H960   1.083       .  S
C961        C962   1.396       .  A
C961        C966   1.403       .  A
C961        H977   1.083       .  S
C962        C963   1.402       .  A
C962        H978   1.084   1_455  S
C963        C973   1.400   1_554  A
C963        C964   1.411       .  A
C964        C970   1.409   1_554  A
C964        C965   1.409       .  A
C965        C967   1.411       .  A
C965        C966   1.409       .  A
C966        C974   1.398       .  A
C967        C976   1.402       .  A
C967        C968   1.403       .  A
C968        C969   1.398   1_554  A
C968        H979   1.084       .  S
C969        C970   1.404       .  A
C969        H980   1.083       .  S
C970        C971   1.400       .  A
C971        C972   1.409       .  A
C971        H981   1.082       .  S
C972        C973   1.406       .  A
C973        H982   1.082   1_455  S
C974        C975   1.408       .  A
C974        H983   1.081       .  S
C975        C976   1.407       .  A
C976        H984   1.082       .  S
C985        C986   1.398       .  A
C985        C990   1.403       .  A
C985       H1001   1.084       .  S
C986        C987   1.403       .  A
C986       H1002   1.084       .  S
C987        C997   1.400       .  A
C987        C988   1.410       .  A
C988        C994   1.411       .  A
C988        C989   1.411       .  A
C989        C991   1.410       .  A
C989        C990   1.411       .  A
C990        C998   1.402       .  A
C991       C1000   1.402       .  A
C991        C992   1.404       .  A
C992        C993   1.398       .  A
C992       H1003   1.083       .  S
C993        C994   1.403       .  A
C993       H1004   1.084       .  S
C994        C995   1.403       .  A
C995        C996   1.408       .  A
C995       H1005   1.082       .  S
C996        C997   1.408       .  A
C997       H1006   1.082       .  S
C998        C999   1.408       .  A
C998       H1007   1.083       .  S
C999       C1000   1.408       .  A
C1000      H1008   1.082       .  S
C1009      C1010   1.397   1_556  A
C1009      C1014   1.403       .  A
C1009      H1025   1.084       .  S
C1010      C1011   1.403       .  A
C1010      H1026   1.083       .  S
C1011      C1021   1.400       .  A
C1011      C1012   1.412       .  A
C1012      C1018   1.410       .  A
C1012      C1013   1.406       .  A
C1013      C1015   1.411       .  A
C1013      C1014   1.410   1_554  A
C1014      C1022   1.398       .  A
C1015      C1024   1.396   1_554  A
C1015      C1016   1.402       .  A
C1016      C1017   1.395       .  A
C1016      H1027   1.084       .  S
C1017      C1018   1.402       .  A
C1017      H1028   1.084       .  S
C1018      C1019   1.394       .  A
C1019      C1020   1.405       .  A
C1019      H1029   1.083       .  S
C1020      C1021   1.404       .  A
C1021      H1030   1.083       .  S
C1022      C1023   1.406       .  A
C1022      H1031   1.083       .  S
C1023      C1024   1.404       .  A
C1024      H1032   1.083       .  S
C1033      C1034   1.397   1_554  A
C1033      C1038   1.402       .  A
C1033      H1049   1.084       .  S
C1034      C1035   1.403       .  A
C1034      H1050   1.084       .  S
C1035      C1045   1.399       .  A
C1035      C1036   1.410   1_556  A
C1036      C1042   1.411       .  A
C1036      C1037   1.409       .  A
C1037      C1039   1.411       .  A
C1037      C1038   1.412       .  A
C1038      C1046   1.400       .  A
C1039      C1048   1.400       .  A
C1039      C1040   1.403       .  A
C1040      C1041   1.398       .  A
C1040      H1051   1.083       .  S
C1041      C1042   1.403       .  A
C1041      H1052   1.084       .  S
C1042      C1043   1.401   1_554  A
C1043      C1044   1.408       .  A
C1043      H1053   1.082       .  S
C1044      C1045   1.408       .  A
C1045      H1054   1.082       .  S
C1046      C1047   1.403       .  A
C1046      H1055   1.084       .  S
C1047      C1048   1.405       .  A
C1048      H1056   1.084       .  S
C1057      C1058   1.399       .  A
C1057      C1062   1.404       .  A
C1057      H1073   1.084       .  S
C1058      C1059   1.404       .  A
C1058      H1074   1.083       .  S
C1059      C1069   1.402       .  A
C1059      C1060   1.410       .  A
C1060      C1066   1.411       .  A
C1060      C1061   1.408       .  A
C1061      C1063   1.409       .  A
C1061      C1062   1.411       .  A
C1062      C1070   1.403       .  A
C1063      C1072   1.395       .  A
C1063      C1064   1.402       .  A
C1064      C1065   1.395       .  A
C1064      H1075   1.084       .  S
C1065      C1066   1.402       .  A
C1065      H1076   1.084       .  S
C1066      C1067   1.397       .  A
C1067      C1068   1.404       .  A
C1067      H1077   1.083       .  S
C1068      C1069   1.409       .  A
C1069      H1078   1.082       .  S
C1070      C1071   1.409       .  A
C1070      H1079   1.082       .  S
C1071      C1072   1.406       .  A
C1072      H1080   1.081       .  S
C1081      C1082   1.400       .  A
C1081      C1086   1.404       .  A
C1081      H1097   1.084       .  S
C1082      C1083   1.404       .  A
C1082      H1098   1.083       .  S
C1083      C1093   1.404       .  A
C1083      C1084   1.410       .  A
C1084      C1090   1.410       .  A
C1084      C1085   1.412       .  A
C1085      C1087   1.410       .  A
C1085      C1086   1.411       .  A
C1086      C1094   1.405       .  A
C1087      C1096   1.400       .  A
C1087      C1088   1.403       .  A
C1088      C1089   1.397       .  A
C1088      H1099   1.084       .  S
C1089      C1090   1.403       .  A
C1089      H1100   1.084       .  S
C1090      C1091   1.401       .  A
C1091      C1092   1.408       .  A
C1091      H1101   1.082       .  S
C1092      C1093   1.410       .  A
C1093      H1102   1.082       .  S
C1094      C1095   1.408       .  A
C1094      H1103   1.083       .  S
C1095      C1096   1.408       .  A
C1096      H1104   1.082       .  S
C1105      C1106   1.397       .  A
C1105      C1110   1.403       .  A
C1105      H1121   1.083       .  S
C1106      C1107   1.403       .  A
C1106      H1122   1.084       .  S
C1107      C1117   1.400       .  A
C1107      C1108   1.411       .  A
C1108      C1114   1.411       .  A
C1108      C1109   1.410       .  A
C1109      C1111   1.412       .  A
C1109      C1110   1.411       .  A
C1110      C1118   1.400       .  A
C1111      C1120   1.402       .  A
C1111      C1112   1.403       .  A
C1112      C1113   1.398       .  A
C1112      H1123   1.084       .  S
C1113      C1114   1.404       .  A
C1113      H1124   1.083       .  S
C1114      C1115   1.402       .  A
C1115      C1116   1.407       .  A
C1115      H1125   1.083       .  S
C1116      C1117   1.406       .  A
C1117      H1126   1.083       .  S
C1118      C1119   1.405       .  A
C1118      H1127   1.084       .  S
C1119      C1120   1.404       .  A
C1120      H1128   1.084       .  S
C1129      C1130   1.397       .  A
C1129      C1134   1.403       .  A
C1129      H1145   1.084       .  S
C1130      C1131   1.403       .  A
C1130      H1146   1.084       .  S
C1131      C1141   1.400       .  A
C1131      C1132   1.410       .  A
C1132      C1138   1.411       .  A
C1132      C1133   1.412       .  A
C1133      C1135   1.410       .  A
C1133      C1134   1.411       .  A
C1134      C1142   1.401       .  A
C1135      C1144   1.405       .  A
C1135      C1136   1.405       .  A
C1136      C1137   1.401       .  A
C1136      H1147   1.084       .  S
C1137      C1138   1.404       .  A
C1137      H1148   1.083       .  S
C1138      C1139   1.406       .  A
C1139      C1140   1.410       .  A
C1139      H1149   1.082       .  S
C1140      C1141   1.409       .  A
C1141      H1150   1.081       .  S
C1142      C1143   1.407       .  A
C1142      H1151   1.082       .  S
C1143      C1144   1.411       .  A
C1144      H1152   1.082       .  S
C1153      C1154   1.400       .  A
C1153      C1158   1.404   1_655  A
C1153      H1169   1.084       .  S
C1154      C1155   1.404       .  A
C1154      H1170   1.084       .  S
C1155      C1165   1.405       .  A
C1155      C1156   1.412   1_655  A
C1156      C1162   1.410       .  A
C1156      C1157   1.412       .  A
C1157      C1159   1.412       .  A
C1157      C1158   1.410       .  A
C1158      C1166   1.403       .  A
C1159      C1168   1.403       .  A
C1159      C1160   1.403       .  A
C1160      C1161   1.398       .  A
C1160      H1171   1.084       .  S
C1161      C1162   1.403       .  A
C1161      H1172   1.084       .  S
C1162      C1163   1.401       .  A
C1163      C1164   1.408   1_455  A
C1163      H1173   1.083       .  S
C1164      C1165   1.408       .  A
C1165      H1174   1.083       .  S
C1166      C1167   1.409       .  A
C1166      H1175   1.083   1_455  S
C1167      C1168   1.406       .  A
C1168      H1176   1.083       .  S
C1177      C1178   1.397       .  A
C1177      C1182   1.402       .  A
C1177      H1193   1.084       .  S
C1178      C1179   1.403       .  A
C1178      H1194   1.083       .  S
C1179      C1189   1.400       .  A
C1179      C1180   1.411       .  A
C1180      C1186   1.412       .  A
C1180      C1181   1.411       .  A
C1181      C1183   1.410       .  A
C1181      C1182   1.412       .  A
C1182      C1190   1.401       .  A
C1183      C1192   1.402       .  A
C1183      C1184   1.404       .  A
C1184      C1185   1.400       .  A
C1184      H1195   1.083       .  S
C1185      C1186   1.404       .  A
C1185      H1196   1.084       .  S
C1186      C1187   1.404       .  A
C1187      C1188   1.407       .  A
C1187      H1197   1.084       .  S
C1188      C1189   1.405       .  A
C1189      H1198   1.083       .  S
C1190      C1191   1.405       .  A
C1190      H1199   1.084       .  S
C1191      C1192   1.408       .  A
C1192      H1200   1.083       .  S
C1201      C1202   1.401       .  A
C1201      C1206   1.405       .  A
C1201      H1217   1.083       .  S
C1202      C1203   1.405       .  A
C1202      H1218   1.083       .  S
C1203      C1213   1.406       .  A
C1203      C1204   1.411       .  A
C1204      C1210   1.410       .  A
C1204      C1205   1.410       .  A
C1205      C1207   1.411       .  A
C1205      C1206   1.412       .  A
C1206      C1214   1.406       .  A
C1207      C1216   1.397       .  A
C1207      C1208   1.402       .  A
C1208      C1209   1.395       .  A
C1208      H1219   1.084       .  S
C1209      C1210   1.402       .  A
C1209      H1220   1.083       .  S
C1210      C1211   1.397       .  A
C1211      C1212   1.406       .  A
C1211      H1221   1.081       .  S
C1212      C1213   1.409       .  A
C1213      H1222   1.083       .  S
C1214      C1215   1.408       .  A
C1214      H1223   1.084       .  S
C1215      C1216   1.404       .  A
C1216      H1224   1.084       .  S
C1225      C1226   1.397       .  A
C1225      C1230   1.403       .  A
C1225      H1241   1.084       .  S
C1226      C1227   1.403       .  A
C1226      H1242   1.084       .  S
C1227      C1237   1.400       .  A
C1227      C1228   1.411       .  A
C1228      C1234   1.410       .  A
C1228      C1229   1.409       .  A
C1229      C1231   1.412       .  A
C1229      C1230   1.410       .  A
C1230      C1238   1.399       .  A
C1231      C1240   1.402       .  A
C1231      C1232   1.403       .  A
C1232      C1233   1.398       .  A
C1232      H1243   1.084       .  S
C1233      C1234   1.403       .  A
C1233      H1244   1.083       .  S
C1234      C1235   1.400       .  A
C1235      C1236   1.407       .  A
C1235      H1245   1.083       .  S
C1236      C1237   1.407       .  A
C1237      H1246   1.083       .  S
C1238      C1239   1.406       .  A
C1238      H1247   1.083       .  S
C1239      C1240   1.405       .  A
C1240      H1248   1.084       .  S
C1249      C1250   1.398       .  A
C1249      C1254   1.403       .  A
C1249      H1265   1.084       .  S
C1250      C1251   1.403       .  A
C1250      H1266   1.083       .  S
C1251      C1261   1.400       .  A
C1251      C1252   1.410       .  A
C1252      C1258   1.412       .  A
C1252      C1253   1.410       .  A
C1253      C1255   1.408       .  A
C1253      C1254   1.412       .  A
C1254      C1262   1.403       .  A
C1255      C1264   1.399       .  A
C1255      C1256   1.404       .  A
C1256      C1257   1.398       .  A
C1256      H1267   1.084       .  S
C1257      C1258   1.402       .  A
C1257      H1268   1.084       .  S
C1258      C1259   1.402       .  A
C1259      C1260   1.405       .  A
C1259      H1269   1.083       .  S
C1260      C1261   1.407       .  A
C1261      H1270   1.083       .  S
C1262      C1263   1.407       .  A
C1262      H1271   1.083       .  S
C1263      C1264   1.410       .  A
C1264      H1272   1.081       .  S
C1273      C1274   1.398       .  A
C1273      C1278   1.403       .  A
C1273      H1289   1.084       .  S
C1274      C1275   1.403       .  A
C1274      H1290   1.083       .  S
C1275      C1285   1.402       .  A
C1275      C1276   1.411       .  A
C1276      C1282   1.410       .  A
C1276      C1277   1.412       .  A
C1277      C1279   1.410       .  A
C1277      C1278   1.410       .  A
C1278      C1286   1.402       .  A
C1279      C1288   1.404       .  A
C1279      C1280   1.404       .  A
C1280      C1281   1.399       .  A
C1280      H1291   1.084       .  S
C1281      C1282   1.404       .  A
C1281      H1292   1.083       .  S
C1282      C1283   1.404       .  A
C1283      C1284   1.409       .  A
C1283      H1293   1.082       .  S
C1284      C1285   1.408       .  A
C1285      H1294   1.082       .  S
C1286      C1287   1.409       .  A
C1286      H1295   1.082       .  S
C1287      C1288   1.410       .  A
C1288      H1296   1.082       .  S
C1297      C1298   1.400       .  A
C1297      C1302   1.405       .  A
C1297      H1313   1.084       .  S
C1298      C1299   1.404       .  A
C1298      H1314   1.083       .  S
C1299      C1309   1.405       .  A
C1299      C1300   1.412       .  A
C1300      C1306   1.410       .  A
C1300      C1301   1.411       .  A
C1301      C1303   1.411       .  A
C1301      C1302   1.410       .  A
C1302      C1310   1.404       .  A
C1303      C1312   1.401       .  A
C1303      C1304   1.402       .  A
C1304      C1305   1.397       .  A
C1304      H1315   1.084       .  S
C1305      C1306   1.403       .  A
C1305      H1316   1.084       .  S
C1306      C1307   1.400       .  A
C1307      C1308   1.407       .  A
C1307      H1317   1.083       .  S
C1308      C1309   1.408       .  A
C1309      H1318   1.083       .  S
C1310      C1311   1.410       .  A
C1310      H1319   1.083       .  S
C1311      C1312   1.405       .  A
C1312      H1320   1.083       .  S
C1321      C1322   1.398       .  A
C1321      C1326   1.403       .  A
C1321      H1337   1.084       .  S
C1322      C1323   1.403       .  A
C1322      H1338   1.084       .  S
C1323      C1333   1.401       .  A
C1323      C1324   1.411       .  A
C1324      C1330   1.411       .  A
C1324      C1325   1.410       .  A
C1325      C1327   1.411       .  A
C1325      C1326   1.412       .  A
C1326      C1334   1.402       .  A
C1327      C1336   1.400       .  A
C1327      C1328   1.403       .  A
C1328      C1329   1.398       .  A
C1328      H1339   1.084       .  S
C1329      C1330   1.403       .  A
C1329      H1340   1.084       .  S
C1330      C1331   1.401       .  A
C1331      C1332   1.407       .  A
C1331      H1341   1.083       .  S
C1332      C1333   1.406       .  A
C1333      H1342   1.083       .  S
C1334      C1335   1.405       .  A
C1334      H1343   1.084       .  S
C1335      C1336   1.405       .  A
C1336      H1344   1.084       .  S
C1345      C1346   1.399       .  A
C1345      C1350   1.404       .  A
C1345      H1361   1.084       .  S
C1346      C1347   1.403       .  A
C1346      H1362   1.084       .  S
C1347      C1357   1.405       .  A
C1347      C1348   1.412       .  A
C1348      C1354   1.409       .  A
C1348      C1349   1.412       .  A
C1349      C1351   1.411       .  A
C1349      C1350   1.409       .  A
C1350      C1358   1.402       .  A
C1351      C1360   1.404       .  A
C1351      C1352   1.403       .  A
C1352      C1353   1.399       .  A
C1352      H1363   1.084       .  S
C1353      C1354   1.404       .  A
C1353      H1364   1.084       .  S
C1354      C1355   1.402       .  A
C1355      C1356   1.410       .  A
C1355      H1365   1.082       .  S
C1356      C1357   1.407       .  A
C1357      H1366   1.083       .  S
C1358      C1359   1.409       .  A
C1358      H1367   1.082       .  S
C1359      C1360   1.408       .  A
C1360      H1368   1.082       .  S
C1369      C1370   1.400       .  A
C1369      C1374   1.404       .  A
C1369      H1385   1.083       .  S
C1370      C1371   1.404       .  A
C1370      H1386   1.084       .  S
C1371      C1381   1.405       .  A
C1371      C1372   1.412       .  A
C1372      C1378   1.411       .  A
C1372      C1373   1.412       .  A
C1373      C1375   1.412       .  A
C1373      C1374   1.410       .  A
C1374      C1382   1.404       .  A
C1375      C1384   1.403       .  A
C1375      C1376   1.403       .  A
C1376      C1377   1.398       .  A
C1376      H1387   1.084       .  S
C1377      C1378   1.403       .  A
C1377      H1388   1.084       .  S
C1378      C1379   1.401       .  A
C1379      C1380   1.407       .  A
C1379      H1389   1.084       .  S
C1380      C1381   1.407       .  A
C1381      H1390   1.084       .  S
C1382      C1383   1.409       .  A
C1382      H1391   1.083       .  S
C1383      C1384   1.406       .  A
C1384      H1392   1.083       .  S
C1393      C1394   1.398       .  A
C1393      C1398   1.404       .  A
C1393      H1409   1.083       .  S
C1394      C1395   1.403       .  A
C1394      H1410   1.084   1_545  S
C1395      C1405   1.401       .  A
C1395      C1396   1.411       .  A
C1396      C1402   1.411       .  A
C1396      C1397   1.409       .  A
C1397      C1399   1.411       .  A
C1397      C1398   1.410       .  A
C1398      C1406   1.400       .  A
C1399      C1408   1.400       .  A
C1399      C1400   1.403       .  A
C1400      C1401   1.397       .  A
C1400      H1411   1.084       .  S
C1401      C1402   1.403       .  A
C1401      H1412   1.084       .  S
C1402      C1403   1.399       .  A
C1403      C1404   1.405       .  A
C1403      H1413   1.083       .  S
C1404      C1405   1.406       .  A
C1405      H1414   1.084   1_545  S
C1406      C1407   1.408       .  A
C1406      H1415   1.082       .  S
C1407      C1408   1.407       .  A
C1408      H1416   1.082       .  S
C1417      C1418   1.399       .  A
C1417      C1422   1.404       .  A
C1417      H1433   1.084       .  S
C1418      C1419   1.404       .  A
C1418      H1434   1.083       .  S
C1419      C1429   1.404       .  A
C1419      C1420   1.412       .  A
C1420      C1426   1.409       .  A
C1420      C1421   1.411       .  A
C1421      C1423   1.412       .  A
C1421      C1422   1.409       .  A
C1422      C1430   1.401       .  A
C1423      C1432   1.401       .  A
C1423      C1424   1.402       .  A
C1424      C1425   1.397       .  A
C1424      H1435   1.084       .  S
C1425      C1426   1.404       .  A
C1425      H1436   1.084       .  S
C1426      C1427   1.399       .  A
C1427      C1428   1.409       .  A
C1427      H1437   1.081       .  S
C1428      C1429   1.408       .  A
C1429      H1438   1.082       .  S
C1430      C1431   1.409       .  A
C1430      H1439   1.082       .  S
C1431      C1432   1.406       .  A
C1432      H1440   1.083       .  S
C1441      C1442   1.399       .  A
C1441      C1446   1.403       .  A
C1441      H1457   1.084       .  S
C1442      C1443   1.404       .  A
C1442      H1458   1.083       .  S
C1443      C1453   1.402       .  A
C1443      C1444   1.409       .  A
C1444      C1450   1.411       .  A
C1444      C1445   1.413       .  A
C1445      C1447   1.410       .  A
C1445      C1446   1.412       .  A
C1446      C1454   1.403       .  A
C1447      C1456   1.403       .  A
C1447      C1448   1.404       .  A
C1448      C1449   1.400       .  A
C1448      H1459   1.083       .  S
C1449      C1450   1.404       .  A
C1449      H1460   1.084       .  S
C1450      C1451   1.405       .  A
C1451      C1452   1.408       .  A
C1451      H1461   1.082       .  S
C1452      C1453   1.410       .  A
C1453      H1462   1.082       .  S
C1454      C1455   1.406       .  A
C1454      H1463   1.084       .  S
C1455      C1456   1.407       .  A
C1456      H1464   1.084       .  S
C1465      C1466   1.398       .  A
C1465      C1470   1.403       .  A
C1465      H1481   1.084       .  S
C1466      C1467   1.403       .  A
C1466      H1482   1.084       .  S
C1467      C1477   1.401       .  A
C1467      C1468   1.411       .  A
C1468      C1474   1.411       .  A
C1468      C1469   1.409       .  A
C1469      C1471   1.411   1_554  A
C1469      C1470   1.412       .  A
C1470      C1478   1.402   1_554  A
C1471      C1480   1.399       .  A
C1471      C1472   1.403       .  A
C1472      C1473   1.397   1_556  A
C1472      H1483   1.084       .  S
C1473      C1474   1.403       .  A
C1473      H1484   1.084       .  S
C1474      C1475   1.400       .  A
C1475      C1476   1.405       .  A
C1475      H1485   1.084       .  S
C1476      C1477   1.407       .  A
C1477      H1486   1.083       .  S
C1478      C1479   1.406       .  A
C1478      H1487   1.084       .  S
C1479      C1480   1.405       .  A
C1480      H1488   1.083       .  S
C1489      C1490   1.398       .  A
C1489      C1494   1.402       .  A
C1489      H1505   1.084       .  S
C1490      C1491   1.403       .  A
C1490      H1506   1.084       .  S
C1491      C1501   1.402       .  A
C1491      C1492   1.411       .  A
C1492      C1498   1.410       .  A
C1492      C1493   1.410       .  A
C1493      C1495   1.412       .  A
C1493      C1494   1.411       .  A
C1494      C1502   1.400       .  A
C1495      C1504   1.403       .  A
C1495      C1496   1.403       .  A
C1496      C1497   1.399       .  A
C1496      H1507   1.083       .  S
C1497      C1498   1.404       .  A
C1497      H1508   1.084   1_545  S
C1498      C1499   1.402       .  A
C1499      C1500   1.410       .  A
C1499      H1509   1.082       .  S
C1500      C1501   1.408       .  A
C1501      H1510   1.082       .  S
C1502      C1503   1.403       .  A
C1502      H1511   1.084       .  S
C1503      C1504   1.406       .  A
C1504      H1512   1.084       .  S
C1513      C1514   1.399       .  A
C1513      C1518   1.404       .  A
C1513      H1529   1.084       .  S
C1514      C1515   1.404       .  A
C1514      H1530   1.084       .  S
C1515      C1525   1.404       .  A
C1515      C1516   1.411       .  A
C1516      C1522   1.410       .  A
C1516      C1517   1.412       .  A
C1517      C1519   1.411       .  A
C1517      C1518   1.410       .  A
C1518      C1526   1.403       .  A
C1519      C1528   1.402       .  A
C1519      C1520   1.403       .  A
C1520      C1521   1.398       .  A
C1520      H1531   1.084       .  S
C1521      C1522   1.403       .  A
C1521      H1532   1.083       .  S
C1522      C1523   1.402       .  A
C1523      C1524   1.409       .  A
C1523      H1533   1.082       .  S
C1524      C1525   1.409       .  A
C1525      H1534   1.082       .  S
C1526      C1527   1.410       .  A
C1526      H1535   1.082       .  S
C1527      C1528   1.407       .  A
C1528      H1536   1.082       .  S
C1537      C1538   1.399       .  A
C1537      C1542   1.404       .  A
C1537      H1553   1.084       .  S
C1538      C1539   1.403   1_556  A
C1538      H1554   1.084       .  S
C1539      C1549   1.405       .  A
C1539      C1540   1.412       .  A
C1540      C1546   1.410       .  A
C1540      C1541   1.412       .  A
C1541      C1543   1.411       .  A
C1541      C1542   1.409   1_554  A
C1542      C1550   1.402       .  A
C1543      C1552   1.404   1_554  A
C1543      C1544   1.403       .  A
C1544      C1545   1.399       .  A
C1544      H1555   1.083       .  S
C1545      C1546   1.404       .  A
C1545      H1556   1.084       .  S
C1546      C1547   1.401       .  A
C1547      C1548   1.408       .  A
C1547      H1557   1.083       .  S
C1548      C1549   1.407       .  A
C1549      H1558   1.083       .  S
C1550      C1551   1.410       .  A
C1550      H1559   1.082       .  S
C1551      C1552   1.409       .  A
C1552      H1560   1.082       .  S
C1561      C1562   1.399       .  A
C1561      C1566   1.404       .  A
C1561      H1577   1.084       .  S
C1562      C1563   1.404       .  A
C1562      H1578   1.084       .  S
C1563      C1573   1.404       .  A
C1563      C1564   1.412       .  A
C1564      C1570   1.410       .  A
C1564      C1565   1.410       .  A
C1565      C1567   1.412       .  A
C1565      C1566   1.410       .  A
C1566      C1574   1.401       .  A
C1567      C1576   1.401       .  A
C1567      C1568   1.402       .  A
C1568      C1569   1.397       .  A
C1568      H1579   1.084       .  S
C1569      C1570   1.403       .  A
C1569      H1580   1.084       .  S
C1570      C1571   1.398       .  A
C1571      C1572   1.406       .  A
C1571      H1581   1.083       .  S
C1572      C1573   1.407       .  A
C1573      H1582   1.084       .  S
C1574      C1575   1.407       .  A
C1574      H1583   1.083       .  S
C1575      C1576   1.405       .  A
C1576      H1584   1.083       .  S
C1585      C1586   1.397       .  A
C1585      C1590   1.403       .  A
C1585      H1601   1.084       .  S
C1586      C1587   1.403       .  A
C1586      H1602   1.084       .  S
C1587      C1597   1.400       .  A
C1587      C1588   1.410       .  A
C1588      C1594   1.411       .  A
C1588      C1589   1.411       .  A
C1589      C1591   1.410       .  A
C1589      C1590   1.410       .  A
C1590      C1598   1.400       .  A
C1591      C1600   1.404       .  A
C1591      C1592   1.404       .  A
C1592      C1593   1.400       .  A
C1592      H1603   1.084       .  S
C1593      C1594   1.404       .  A
C1593      H1604   1.083       .  S
C1594      C1595   1.404       .  A
C1595      C1596   1.409       .  A
C1595      H1605   1.082       .  S
C1596      C1597   1.408       .  A
C1597      H1606   1.082       .  S
C1598      C1599   1.408       .  A
C1598      H1607   1.081       .  S
C1599      C1600   1.410       .  A
C1600      H1608   1.082       .  S
C1609      C1610   1.398   1_554  A
C1609      C1614   1.403       .  A
C1609      H1625   1.083       .  S
C1610      C1611   1.404       .  A
C1610      H1626   1.084       .  S
C1611      C1621   1.401       .  A
C1611      C1612   1.410   1_556  A
C1612      C1618   1.411       .  A
C1612      C1613   1.411       .  A
C1613      C1615   1.410       .  A
C1613      C1614   1.412       .  A
C1614      C1622   1.402       .  A
C1615      C1624   1.402       .  A
C1615      C1616   1.404       .  A
C1616      C1617   1.399       .  A
C1616      H1627   1.084       .  S
C1617      C1618   1.404       .  A
C1617      H1628   1.084   1_545  S
C1618      C1619   1.404   1_554  A
C1619      C1620   1.408       .  A
C1619      H1629   1.083   1_545  S
C1620      C1621   1.409       .  A
C1621      H1630   1.082       .  S
C1622      C1623   1.404       .  A
C1622      H1631   1.084       .  S
C1623      C1624   1.407       .  A
C1624      H1632   1.084       .  S
C1633      C1634   1.398       .  A
C1633      C1638   1.403       .  A
C1633      H1649   1.084       .  S
C1634      C1635   1.404       .  A
C1634      H1650   1.084       .  S
C1635      C1645   1.400       .  A
C1635      C1636   1.408       .  A
C1636      C1642   1.412       .  A
C1636      C1637   1.413       .  A
C1637      C1639   1.409       .  A
C1637      C1638   1.412       .  A
C1638      C1646   1.404       .  A
C1639      C1648   1.404       .  A
C1639      C1640   1.405       .  A
C1640      C1641   1.401       .  A
C1640      H1651   1.083       .  S
C1641      C1642   1.404       .  A
C1641      H1652   1.083       .  S
C1642      C1643   1.408       .  A
C1643      C1644   1.409       .  A
C1643      H1653   1.083       .  S
C1644      C1645   1.411       .  A
C1645      H1654   1.081       .  S
C1646      C1647   1.408       .  A
C1646      H1655   1.082       .  S
C1647      C1648   1.411       .  A
C1648      H1656   1.082       .  S
C1657      C1658   1.401       .  A
C1657      C1662   1.404       .  A
C1657      H1673   1.084       .  S
C1658      C1659   1.404       .  A
C1658      H1674   1.084   1_554  S
C1659      C1669   1.407   1_554  A
C1659      C1660   1.412       .  A
C1660      C1666   1.410       .  A
C1660      C1661   1.411       .  A
C1661      C1663   1.411       .  A
C1661      C1662   1.410       .  A
C1662      C1670   1.404       .  A
C1663      C1672   1.400       .  A
C1663      C1664   1.403       .  A
C1664      C1665   1.396       .  A
C1664      H1675   1.084       .  S
C1665      C1666   1.402       .  A
C1665      H1676   1.084       .  S
C1666      C1667   1.397       .  A
C1667      C1668   1.406   1_554  A
C1667      H1677   1.083       .  S
C1668      C1669   1.408       .  A
C1669      H1678   1.084       .  S
C1670      C1671   1.408       .  A
C1670      H1679   1.083       .  S
C1671      C1672   1.407       .  A
C1672      H1680   1.083       .  S
C1681      C1682   1.400       .  A
C1681      C1686   1.404       .  A
C1681      H1697   1.083       .  S
C1682      C1683   1.405       .  A
C1682      H1698   1.084       .  S
C1683      C1693   1.404       .  A
C1683      C1684   1.409       .  A
C1684      C1690   1.411       .  A
C1684      C1685   1.414       .  A
C1685      C1687   1.409       .  A
C1685      C1686   1.412       .  A
C1686      C1694   1.407       .  A
C1687      C1696   1.402       .  A
C1687      C1688   1.404       .  A
C1688      C1689   1.399       .  A
C1688      H1699   1.084       .  S
C1689      C1690   1.403       .  A
C1689      H1700   1.083       .  S
C1690      C1691   1.404       .  A
C1691      C1692   1.408       .  A
C1691      H1701   1.082       .  S
C1692      C1693   1.411       .  A
C1693      H1702   1.082       .  S
C1694      C1695   1.409       .  A
C1694      H1703   1.082       .  S
C1695      C1696   1.410       .  A
C1696      H1704   1.082       .  S
C1705      C1706   1.396       .  A
C1705      C1710   1.403       .  A
C1705      H1721   1.084       .  S
C1706      C1707   1.402       .  A
C1706      H1722   1.084       .  S
C1707      C1717   1.401       .  A
C1707      C1708   1.413       .  A
C1708      C1714   1.410       .  A
C1708      C1709   1.411       .  A
C1709      C1711   1.413       .  A
C1709      C1710   1.409       .  A
C1710      C1718   1.396       .  A
C1711      C1720   1.407       .  A
C1711      C1712   1.404       .  A
C1712      C1713   1.401       .  A
C1712      H1723   1.083       .  S
C1713      C1714   1.405       .  A
C1713      H1724   1.084       .  S
C1714      C1715   1.403       .  A
C1715      C1716   1.407       .  A
C1715      H1725   1.084       .  S
C1716      C1717   1.403       .  A
C1717      H1726   1.084       .  S
C1718      C1719   1.407       .  A
C1718      H1727   1.082       .  S
C1719      C1720   1.407       .  A
C1720      H1728   1.083       .  S
C1729      C1730   1.401       .  A
C1729      C1734   1.405       .  A
C1729      H1745   1.083       .  S
C1730      C1731   1.404       .  A
C1730      H1746   1.084   1_545  S
C1731      C1741   1.407       .  A
C1731      C1732   1.412       .  A
C1732      C1738   1.410       .  A
C1732      C1733   1.413       .  A
C1733      C1735   1.412       .  A
C1733      C1734   1.410       .  A
C1734      C1742   1.405       .  A
C1735      C1744   1.403       .  A
C1735      C1736   1.403       .  A
C1736      C1737   1.398       .  A
C1736      H1747   1.084       .  S
C1737      C1738   1.403       .  A
C1737      H1748   1.084       .  S
C1738      C1739   1.402       .  A
C1739      C1740   1.409       .  A
C1739      H1749   1.082       .  S
C1740      C1741   1.409       .  A
C1741      H1750   1.083   1_545  S
C1742      C1743   1.411       .  A
C1742      H1751   1.083       .  S
C1743      C1744   1.406       .  A
C1744      H1752   1.083       .  S
C1753      C1754   1.397       .  A
C1753      C1758   1.402       .  A
C1753      H1769   1.084       .  S
C1754      C1755   1.403       .  A
C1754      H1770   1.084       .  S
C1755      C1765   1.400       .  A
C1755      C1756   1.409       .  A
C1756      C1762   1.412       .  A
C1756      C1757   1.411       .  A
C1757      C1759   1.410       .  A
C1757      C1758   1.412       .  A
C1758      C1766   1.402       .  A
C1759      C1768   1.402       .  A
C1759      C1760   1.404       .  A
C1760      C1761   1.399       .  A
C1760      H1771   1.084       .  S
C1761      C1762   1.404       .  A
C1761      H1772   1.083   1_545  S
C1762      C1763   1.405       .  A
C1763      C1764   1.408       .  A
C1763      H1773   1.083   1_545  S
C1764      C1765   1.408       .  A
C1765      H1774   1.082       .  S
C1766      C1767   1.405       .  A
C1766      H1775   1.084       .  S
C1767      C1768   1.408       .  A
C1768      H1776   1.083       .  S
C1777      C1778   1.397       .  A
C1777      C1782   1.403       .  A
C1777      H1793   1.084       .  S
C1778      C1779   1.403       .  A
C1778      H1794   1.084       .  S
C1779      C1789   1.401       .  A
C1779      C1780   1.410       .  A
C1780      C1786   1.410       .  A
C1780      C1781   1.413       .  A
C1781      C1783   1.411       .  A
C1781      C1782   1.410       .  A
C1782      C1790   1.401       .  A
C1783      C1792   1.407       .  A
C1783      C1784   1.405       .  A
C1784      C1785   1.401       .  A
C1784      H1795   1.083       .  S
C1785      C1786   1.405       .  A
C1785      H1796   1.084       .  S
C1786      C1787   1.406       .  A
C1787      C1788   1.411       .  A
C1787      H1797   1.082       .  S
C1788      C1789   1.408       .  A
C1789      H1798   1.082       .  S
C1790      C1791   1.409       .  A
C1790      H1799   1.081       .  S
C1791      C1792   1.411       .  A
C1792      H1800   1.082       .  S
C1801      C1802   1.396       .  A
C1801      C1806   1.403       .  A
C1801      H1817   1.084       .  S
C1802      C1803   1.402       .  A
C1802      H1818   1.083       .  S
C1803      C1813   1.400       .  A
C1803      C1804   1.412       .  A
C1804      C1810   1.409       .  A
C1804      C1805   1.410       .  A
C1805      C1807   1.412       .  A
C1805      C1806   1.408       .  A
C1806      C1814   1.396       .  A
C1807      C1816   1.404       .  A
C1807      C1808   1.404       .  A
C1808      C1809   1.399       .  A
C1808      H1819   1.083       .  S
C1809      C1810   1.405       .  A
C1809      H1820   1.084       .  S
C1810      C1811   1.401       .  A
C1811      C1812   1.411       .  A
C1811      H1821   1.082       .  S
C1812      C1813   1.404       .  A
C1813      H1822   1.083       .  S
C1814      C1815   1.408       .  A
C1814      H1823   1.081       .  S
C1815      C1816   1.409       .  A
C1816      H1824   1.082       .  S
C1825      C1826   1.397       .  A
C1825      C1830   1.403       .  A
C1825      H1841   1.084       .  S
C1826      C1827   1.402       .  A
C1826      H1842   1.084       .  S
C1827      C1837   1.399       .  A
C1827      C1828   1.411       .  A
C1828      C1834   1.411       .  A
C1828      C1829   1.409       .  A
C1829      C1831   1.411       .  A
C1829      C1830   1.410       .  A
C1830      C1838   1.399       .  A
C1831      C1840   1.402       .  A
C1831      C1832   1.403       .  A
C1832      C1833   1.398       .  A
C1832      H1843   1.084       .  S
C1833      C1834   1.403       .  A
C1833      H1844   1.084       .  S
C1834      C1835   1.400       .  A
C1835      C1836   1.405       .  A
C1835      H1845   1.084       .  S
C1836      C1837   1.405       .  A
C1837      H1846   1.084       .  S
C1838      C1839   1.406       .  A
C1838      H1847   1.083       .  S
C1839      C1840   1.406       .  A
C1840      H1848   1.083       .  S
C1849      C1850   1.397       .  A
C1849      C1854   1.402       .  A
C1849      H1865   1.084       .  S
C1850      C1851   1.403       .  A
C1850      H1866   1.084       .  S
C1851      C1861   1.399       .  A
C1851      C1852   1.410       .  A
C1852      C1858   1.412       .  A
C1852      C1853   1.410       .  A
C1853      C1855   1.410       .  A
C1853      C1854   1.412       .  A
C1854      C1862   1.401       .  A
C1855      C1864   1.401       .  A
C1855      C1856   1.404       .  A
C1856      C1857   1.399       .  A
C1856      H1867   1.084       .  S
C1857      C1858   1.403       .  A
C1857      H1868   1.084       .  S
C1858      C1859   1.403       .  A
C1859      C1860   1.406       .  A
C1859      H1869   1.083       .  S
C1860      C1861   1.407       .  A
C1861      H1870   1.083       .  S
C1862      C1863   1.404       .  A
C1862      H1871   1.084       .  S
C1863      C1864   1.406       .  A
C1864      H1872   1.084       .  S
C1873      C1874   1.399       .  A
C1873      C1878   1.404       .  A
C1873      H1889   1.084       .  S
C1874      C1875   1.403       .  A
C1874      H1890   1.084       .  S
C1875      C1885   1.403       .  A
C1875      C1876   1.411       .  A
C1876      C1882   1.411       .  A
C1876      C1877   1.411       .  A
C1877      C1879   1.411       .  A
C1877      C1878   1.411       .  A
C1878      C1886   1.404       .  A
C1879      C1888   1.402       .  A
C1879      C1880   1.403       .  A
C1880      C1881   1.398       .  A
C1880      H1891   1.083       .  S
C1881      C1882   1.403       .  A
C1881      H1892   1.084       .  S
C1882      C1883   1.402       .  A
C1883      C1884   1.407       .  A
C1883      H1893   1.083       .  S
C1884      C1885   1.406       .  A
C1885      H1894   1.084       .  S
C1886      C1887   1.407       .  A
C1886      H1895   1.083       .  S
C1887      C1888   1.406       .  A
C1888      H1896   1.083       .  S
C1897      C1898   1.399       .  A
C1897      C1902   1.403       .  A
C1897      H1913   1.083       .  S
C1898      C1899   1.404       .  A
C1898      H1914   1.084       .  S
C1899      C1909   1.401       .  A
C1899      C1900   1.409       .  A
C1900      C1906   1.411       .  A
C1900      C1901   1.411       .  A
C1901      C1903   1.409       .  A
C1901      C1902   1.411       .  A
C1902      C1910   1.404       .  A
C1903      C1912   1.400       .  A
C1903      C1904   1.404       .  A
C1904      C1905   1.398       .  A
C1904      H1915   1.084       .  S
C1905      C1906   1.403       .  A
C1905      H1916   1.083       .  S
C1906      C1907   1.403       .  A
C1907      C1908   1.408       .  A
C1907      H1917   1.082       .  S
C1908      C1909   1.410       .  A
C1909      H1918   1.081       .  S
C1910      C1911   1.408       .  A
C1910      H1919   1.082       .  S
C1911      C1912   1.410       .  A
C1912      H1920   1.081       .  S
