geometry optimzed in LAMMPS
_audit_creation_date              2020-12-01 
_audit_creation_method            'lammps2cif' 
_symmetry_space_group_name_H-M    'P1' 
_symmetry_Int_Tables_number       1 
_symmetry_cell_setting            triclinic 
loop_ 
_symmetry_equiv_pos_as_xyz 
  x,y,z 
_cell_length_a                    39.49784882 
_cell_length_b                    39.765447193738964 
_cell_length_c                    40.12594512784584 
_cell_angle_alpha                 90.01816042708853 
_cell_angle_beta                  89.74202477820555 
_cell_angle_gamma                 121.57552115055412 
loop_ 
_atom_site_label 
_atom_site_type_symbol 
_atom_site_fract_x 
_atom_site_fract_y 
_atom_site_fract_z 
_atom_site_charge 
O1          O  0.47141781  0.57465010  0.16930727    -0.57500
C2          C  0.43749034  0.63922503  0.23618566     0.75100
O3          O  0.34256587  0.53246003  0.20391791    -0.58600
C4          C  0.45293702  0.53876824  0.15997323     0.75100
C5          C  0.43288501  0.52510724  0.26404644     0.77500
Cd6        Cd  0.41700580  0.56286876  0.20988322     1.37500
O7          O  0.45042361  0.63648371  0.20791947    -0.57500
O8          O  0.45911828  0.55727695  0.25068746    -0.56300
C9          C  0.34571958  0.54442064  0.17401388     0.77500
O10         O  0.39771775  0.50990287  0.25293606    -0.58700
O11         O  0.41697766  0.60740934  0.25234084    -0.57100
O12         O  0.41969970  0.51606865  0.17385054    -0.57100
O13         O  0.38049977  0.56361974  0.16208130    -0.56300
O14         O  0.09945863  0.60159431  0.08928546    -0.57500
C15         C  0.19204414  0.65197598  0.02270972     0.75100
O16         O  0.16309724  0.54123366  0.05419542    -0.58600
C17         C  0.06640370  0.56933275  0.09219469     0.75100
C18         C  0.08555137  0.54058864  0.48386339     0.77500
Cd19       Cd  0.12649528  0.57649118  0.04584134     1.37500
O20         O  0.15739224  0.64628455  0.02500832    -0.57500
O21         O  0.10368690  0.57717125  0.98969835    -0.56300
C22         C  0.16810269  0.54807265  0.08526249     0.77500
O23         O  0.08680968  0.51915950  0.00665881    -0.58700
O24         O  0.19606378  0.62403796  0.03243942    -0.57100
O25         O  0.06074709  0.54201884  0.07252430    -0.57100
O26         O  0.15231545  0.56581576  0.09780206    -0.56300
O27         O  0.40924392  0.90628819  0.32987880    -0.57500
C28         C  0.35822518  0.82184833  0.40800360     0.75100
O29         O  0.45962369  0.83032303  0.36628081    -0.58600
C30         C  0.44139677  0.92166381  0.31322803     0.75100
C31         C  0.47911477  0.93304127  0.41620233     0.77500
Cd32       Cd  0.42967319  0.87167167  0.36932903     1.37500
O33         O  0.35685284  0.83936046  0.38208304    -0.57500
O34         O  0.44802825  0.92896735  0.40337416    -0.56300
C35         C  0.44299499  0.81337214  0.33919998     0.77500
O36         O  0.48888419  0.90882302  0.40671542    -0.58700
O37         O  0.39191727  0.82755204  0.41530642    -0.57100
O38         O  0.46655521  0.91294927  0.32228249    -0.57100
O39         O  0.42088646  0.82378973  0.32590979    -0.56300
O40         O  0.89062965  0.41438321  0.33843485    -0.57500
C41         C  0.80290848  0.35911747  0.27652755     0.75100
O42         O  0.81668530  0.46474243  0.29912295    -0.58600
C43         C  0.92227384  0.44767472  0.34224990     0.75100
C44         C  0.90141127  0.47638140  0.23376215     0.77500
Cd45       Cd  0.86196370  0.43842271  0.29604605     1.37500
O46         O  0.79440661  0.38155106  0.29186627    -0.57500
O47         O  0.87609986  0.43993513  0.23643030    -0.56300
C48         C  0.81545447  0.46477042  0.33070085     0.77500
O49         O  0.90725697  0.49676769  0.25975680    -0.58700
O50         O  0.83955682  0.37182438  0.27265817    -0.57100
O51         O  0.92644959  0.47520764  0.32358987    -0.57100
O52         O  0.83726335  0.45513565  0.34556274    -0.56300
O53         O  0.51173772  0.42825402  0.41799449    -0.57500
C54         C  0.55086179  0.36889896  0.49155642     0.75100
O55         O  0.63631696  0.47422441  0.44655411    -0.58600
C56         C  0.53004969  0.46433823  0.40899996     0.75100
C57         C  0.55156701  0.47714201  0.01655261     0.77500
Cd58       Cd  0.56424476  0.44014704  0.46001563     1.37500
O59         O  0.52352319  0.36766826  0.47390411    -0.57500
O60         O  0.52452973  0.44562412  0.50317075    -0.56300
C61         C  0.63080393  0.45527482  0.41953847     0.77500
O62         O  0.58619810  0.49238127  0.50401947    -0.58700
O63         O  0.58295819  0.40203763  0.49349574    -0.57100
O64         O  0.56205757  0.48744210  0.42415824    -0.57100
O65         O  0.59517426  0.42981363  0.41212430    -0.56300
O66         O  0.58874045  0.10783339  0.07254311    -0.57500
C67         C  0.64618648  0.19186796  0.15670357     0.75100
O68         O  0.54231838  0.18025159  0.10862709    -0.58600
C69         C  0.55411990  0.09383795  0.06058805     0.75100
C70         C  0.53809708  0.08071745  0.16685750     0.77500
Cd71       Cd  0.57629659  0.14269182  0.11858162     1.37500
O72         O  0.64907328  0.17795280  0.12896811    -0.57500
O73         O  0.56839040  0.08822432  0.14991206    -0.56300
C74         C  0.57139011  0.20687128  0.09168602     0.77500
O75         O  0.52387538  0.10251813  0.16154741    -0.58700
O76         O  0.61148991  0.18193757  0.16616225    -0.57100
O77         O  0.53169924  0.10298508  0.07538490    -0.57100
O78         O  0.60105009  0.20307877  0.08785333    -0.56300
C79         C  0.54647404  0.33419383  0.00956832    -0.04900
C80         C  0.50940198  0.29907961  0.01354399    -0.04800
C81         C  0.50606864  0.26738273  0.03190580    -0.23000
C82         C  0.53984263  0.27015187  0.04629090     0.19200
C83         C  0.57719899  0.30532189  0.04208714     0.16400
C84         C  0.58019007  0.33693330  0.02404015    -0.18000
C85         C  0.61126808  0.30833451  0.05564650    -0.19900
C86         C  0.60865658  0.27643164  0.07248641    -0.12400
C87         C  0.57189818  0.24109251  0.07670665     0.04200
C88         C  0.53727269  0.23827691  0.06412100    -0.24600
H89         H  0.48294813  0.29630238  0.00279865     0.09300
H90         H  0.47717050  0.24069493  0.03470911     0.12900
H91         H  0.60901404  0.36370786  0.02111089     0.12900
H92         H  0.64007489  0.33509536  0.05266560     0.12600
H93         H  0.63566659  0.27927007  0.08202218     0.13200
H94         H  0.50888234  0.21095372  0.06694642     0.15100
C95         C  0.78859895  0.47329929  0.34965449    -0.04900
C96         C  0.79657534  0.48476848  0.38323541    -0.04800
C97         C  0.76861305  0.48707756  0.40298466    -0.23000
C98         C  0.73164437  0.47685472  0.38975301     0.19200
C99         C  0.72367059  0.46612731  0.35576068     0.16400
C100        C  0.75252804  0.46526782  0.33574757    -0.18000
C101        C  0.68620682  0.45444984  0.34280181    -0.19900
C102        C  0.65643553  0.45179862  0.36358042    -0.12400
C103        C  0.66379536  0.46172959  0.39750346     0.04200
C104        C  0.70188953  0.47535177  0.41027127    -0.24600
H105        H  0.82418173  0.49102948  0.39447814     0.09300
H106        H  0.77528985  0.49532117  0.42894419     0.12900
H107        H  0.74586680  0.45582143  0.31000902     0.12900
H108        H  0.67950126  0.44609357  0.31686247     0.12600
H109        H  0.62733771  0.44149136  0.35315716     0.13200
H110        H  0.70771251  0.48276473  0.43647302     0.15100
C111        C  0.77124240  0.32160217  0.26198540    -0.04900
C112        C  0.73222535  0.30436409  0.27417824    -0.04800
C113        C  0.70049189  0.27370625  0.25693609    -0.23000
C114        C  0.70714023  0.26009318  0.22689116     0.19200
C115        C  0.74634473  0.27604315  0.21490069     0.16400
C116        C  0.77834214  0.30639726  0.23285764    -0.18000
C117        C  0.75253882  0.26253433  0.18445239    -0.19900
C118        C  0.72012171  0.23435082  0.16568231    -0.12400
C119        C  0.68106050  0.21915043  0.17716606     0.04200
C120        C  0.67497576  0.23176569  0.20812605    -0.24600
H121        H  0.72608468  0.31561990  0.29648460     0.09300
H122        H  0.67060486  0.26166800  0.26647264     0.12900
H123        H  0.80829367  0.31987586  0.22302898     0.12900
H124        H  0.78236125  0.27441520  0.17478961     0.12600
H125        H  0.72556166  0.22511470  0.14192548     0.13200
H126        H  0.64503785  0.22032186  0.21732890     0.15100
C127        C  0.45030467  0.94918215  0.28510782    -0.04900
C128        C  0.42929650  0.96843923  0.28045521    -0.04800
C129        C  0.44119593  0.99756618  0.25574148    -0.23000
C130        C  0.47420320  0.00772819  0.23526776     0.19200
C131        C  0.49444822  0.98736609  0.23928133     0.16400
C132        C  0.48235464  0.95835547  0.26391012    -0.18000
C133        C  0.52722451  0.99687189  0.21915854    -0.19900
C134        C  0.54055310  0.02685900  0.19562514    -0.12400
C135        C  0.52146139  0.04812384  0.19153394     0.04200
C136        C  0.48786197  0.03816251  0.21129190    -0.24600
H137        H  0.40446852  0.96185117  0.29657760     0.09300
H138        H  0.42509831  0.01261150  0.25307004     0.12900
H139        H  0.49859183  0.94347567  0.26705390     0.12900
H140        H  0.54295313  0.98143898  0.22190681     0.12600
H141        H  0.56635621  0.03365979  0.18077870     0.13200
H142        H  0.47281125  0.05424235  0.20833209     0.15100
C143        C  0.53944326  0.06806489  0.03094645    -0.04900
C144        C  0.50601292  0.06353490  0.01443327    -0.04800
C145        C  0.48924639  0.03766681  0.98780400    -0.23000
C146        C  0.50525913  0.01532999  0.97729424     0.19200
C147        C  0.53921547  0.01972402  0.49319542     0.16400
C148        C  0.55649250  0.04651486  0.01988512    -0.18000
C149        C  0.55446422  0.99651840  0.48251480    -0.19900
C150        C  0.53562646  0.96871188  0.45694625    -0.12400
C151        C  0.50148756  0.96395748  0.44152562     0.04200
C152        C  0.48700431  0.98795259  0.45157965    -0.24600
H153        H  0.49245544  0.07990607  0.02231021     0.09300
H154        H  0.46327116  0.03461637  0.97581988     0.12900
H155        H  0.58210419  0.04960802  0.03260114     0.12900
H156        H  0.58045068  0.99935626  0.49429931     0.12600
H157        H  0.54736982  0.95056499  0.44960365     0.13200
H158        H  0.46071854  0.98465849  0.43996889     0.15100
C159        C  0.95212771  0.45506345  0.36803376    -0.04900
C160        C  0.94314413  0.42801794  0.39411480    -0.04800
C161        C  0.96923139  0.43774849  0.42098042    -0.23000
C162        C  0.00472418  0.47474948  0.42224822     0.19200
C163        C  0.01472107  0.50134854  0.39532752     0.16400
C164        C  0.98858018  0.49127066  0.36842870    -0.18000
C165        C  0.04985557  0.53842491  0.39641797    -0.19900
C166        C  0.07372184  0.55007154  0.42471756    -0.12400
C167        C  0.06335005  0.52473306  0.45234368     0.04200
C168        C  0.02944834  0.48643274  0.45051674    -0.24600
H169        H  0.91519847  0.39994206  0.39440478     0.09300
H170        H  0.96102278  0.41686665  0.44127450     0.12900
H171        H  0.99595019  0.51237588  0.34840023     0.12900
H172        H  0.05812084  0.55905267  0.37588229     0.12600
H173        H  0.09985638  0.57956406  0.42541317     0.13200
H174        H  0.02105938  0.46673100  0.47176475     0.15100
C175        C  0.03658700  0.56264054  0.11815789    -0.04900
C176        C  0.04668821  0.58856686  0.14526280    -0.04800
C177        C  0.02057355  0.57872626  0.17237688    -0.23000
C178        C  0.98395772  0.54270998  0.17287777     0.19200
C179        C  0.97276413  0.51753137  0.14490113     0.16400
C180        C  0.99892063  0.52775058  0.11774420    -0.18000
C181        C  0.93640970  0.48149266  0.14516271    -0.19900
C182        C  0.91240320  0.46931705  0.17360658    -0.12400
C183        C  0.92396828  0.49305129  0.20228810     0.04200
C184        C  0.95925602  0.53047743  0.20137986    -0.24600
H185        H  0.07549277  0.61564057  0.14618546     0.09300
H186        H  0.02964946  0.59857676  0.19344736     0.12900
H187        H  0.99063202  0.50759774  0.09693981     0.12900
H188        H  0.92724896  0.46199857  0.12384328     0.12600
H189        H  0.88529279  0.44052324  0.17352048     0.13200
H190        H  0.96855789  0.54900207  0.22333779     0.15100
C191        C  0.22629309  0.68838480  0.50858776    -0.04900
C192        C  0.26477905  0.69991318  0.51897740    -0.04800
C193        C  0.29808320  0.73050382  0.50287772    -0.23000
C194        C  0.29355742  0.74962039  0.47549644     0.19200
C195        C  0.25506845  0.73927887  0.46530444     0.16400
C196        C  0.22151439  0.70902762  0.48230741    -0.18000
C197        C  0.25094642  0.75823727  0.43743365    -0.19900
C198        C  0.28449629  0.78596207  0.41918207    -0.12400
C199        C  0.32271650  0.79536984  0.42859661     0.04200
C200        C  0.32696357  0.77773725  0.45737197    -0.24600
H201        H  0.26912458  0.68450125  0.03919064     0.09300
H202        H  0.32735774  0.73819901  0.51107535     0.12900
H203        H  0.19193310  0.70002551  0.47388536     0.12900
H204        H  0.22177629  0.75085506  0.42922645     0.12600
H205        H  0.28044709  0.79932611  0.39724457     0.13200
H206        H  0.35623332  0.78485941  0.46509067     0.15100
C207        C  0.46801908  0.52296730  0.13415157    -0.04900
C208        C  0.44287486  0.48373085  0.12363002    -0.04800
C209        C  0.45507190  0.46724201  0.09940329    -0.23000
C210        C  0.49284920  0.48950018  0.08504591     0.19200
C211        C  0.51897701  0.52886291  0.09537177     0.16400
C212        C  0.50633218  0.54556575  0.11989752    -0.18000
C213        C  0.55700301  0.55056557  0.08073181    -0.19900
C214        C  0.56845269  0.53363126  0.05573690    -0.12400
C215        C  0.54199647  0.49483089  0.04486995     0.04200
C216        C  0.50446576  0.47289072  0.06012591    -0.24600
H217        H  0.41329752  0.46553745  0.13402311     0.09300
H218        H  0.43476582  0.43701883  0.09176443     0.12900
H219        H  0.52609621  0.57579989  0.12782078     0.12900
H220        H  0.57765954  0.58071090  0.08830784     0.12600
H221        H  0.59759459  0.55117484  0.04436522     0.13200
H222        H  0.48383548  0.44283393  0.05223965     0.15100
C223        C  0.44367496  0.50683023  0.29102008    -0.04900
C224        C  0.41781530  0.46758541  0.30136399    -0.04800
C225        C  0.42931299  0.45071204  0.32623743    -0.23000
C226        C  0.46674119  0.47292830  0.34143957     0.19200
C227        C  0.49269898  0.51243695  0.33117172     0.16400
C228        C  0.48116828  0.52891253  0.30608708    -0.18000
C229        C  0.52989143  0.53511378  0.34619453    -0.19900
C230        C  0.54136684  0.51906116  0.37135050    -0.12400
C231        C  0.51612332  0.47980928  0.38204175     0.04200
C232        C  0.47871432  0.45666070  0.36676384    -0.24600
H233        H  0.38887194  0.44980866  0.28996318     0.09300
H234        H  0.40892286  0.42036905  0.33362595     0.12900
H235        H  0.50146689  0.55920795  0.29842780     0.12900
H236        H  0.55013966  0.56543464  0.33858319     0.12600
H237        H  0.57036900  0.53759659  0.38240794     0.13200
H238        H  0.45895107  0.42637631  0.37471509     0.15100
C239        C  0.44800149  0.78216274  0.32434498    -0.04900
C240        C  0.45383285  0.75720063  0.34504598    -0.04800
C241        C  0.45447262  0.72503339  0.33172899    -0.23000
C242        C  0.45016322  0.71775397  0.29732919     0.19200
C243        C  0.44649589  0.74395862  0.27599866     0.16400
C244        C  0.44484372  0.77568917  0.28969113    -0.18000
C245        C  0.44366393  0.73737858  0.24145100    -0.19900
C246        C  0.44301576  0.70438602  0.22830964    -0.12400
C247        C  0.44434555  0.67701431  0.24951152     0.04200
C248        C  0.44847283  0.68419239  0.28401216    -0.24600
H249        H  0.45634383  0.76167432  0.37177409     0.09300
H250        H  0.45772078  0.70549136  0.34840439     0.12900
H251        H  0.44080006  0.79511380  0.27349661     0.12900
H252        H  0.44119906  0.75731630  0.22466465     0.12600
H253        H  0.43959281  0.69925946  0.20167858     0.13200
H254        H  0.44976423  0.66330733  0.30050865     0.15100
C255        C  0.19270916  0.53805558  0.10587179    -0.04900
C256        C  0.18681714  0.53331041  0.14056647    -0.04800
C257        C  0.21341821  0.52953328  0.16088668    -0.23000
C258        C  0.24714021  0.53161594  0.14699454     0.19200
C259        C  0.25274618  0.53546805  0.11200578     0.16400
C260        C  0.22512760  0.53781723  0.09165551    -0.18000
C261        C  0.28695638  0.53894136  0.09801903    -0.19900
C262        C  0.31615081  0.54035054  0.11845328    -0.12400
C263        C  0.31160144  0.53754765  0.15332106     0.04200
C264        C  0.27631582  0.53193898  0.16747748    -0.24600
H265        H  0.16200448  0.53340897  0.15209041     0.09300
H266        H  0.20844962  0.52656730  0.18757388     0.12900
H267        H  0.23027233  0.54202989  0.06500612     0.12900
H268        H  0.29182107  0.54197411  0.07131875     0.12600
H269        H  0.34293223  0.54448348  0.10687928     0.13200
H270        H  0.27261917  0.53011114  0.19432160     0.15100
O271        O  0.47141778  0.57465011  0.66930725    -0.57500
C272        C  0.43749034  0.63922503  0.73618562     0.75100
O273        O  0.34256586  0.53246011  0.70391790    -0.58600
C274        C  0.45293699  0.53876824  0.65997320     0.75100
C275        C  0.43288502  0.52510724  0.76404639     0.77500
Cd276      Cd  0.41700578  0.56286876  0.70988319     1.37500
O277        O  0.45042351  0.63648372  0.70791939    -0.57500
O278        O  0.45911829  0.55727694  0.75068739    -0.56300
C279        C  0.34571954  0.54442065  0.67401386     0.77500
O280        O  0.39771775  0.50990286  0.75293601    -0.58700
O281        O  0.41697780  0.60740936  0.75234085    -0.57100
O282        O  0.41969968  0.51606865  0.67385051    -0.57100
O283        O  0.38049973  0.56361970  0.66208125    -0.56300
O284        O  0.09945865  0.60159434  0.58928550    -0.57500
C285        C  0.19204415  0.65197607  0.52270970     0.75100
O286        O  0.16309728  0.54123377  0.55419539    -0.58600
C287        C  0.06640366  0.56933280  0.59219466     0.75100
C288        C  0.08555134  0.54058859  0.98386339     0.77500
Cd289      Cd  0.12649529  0.57649125  0.54584134     1.37500
O290        O  0.15739224  0.64628460  0.52500825    -0.57500
O291        O  0.10368687  0.57717130  0.48969834    -0.56300
C292        C  0.16810268  0.54807271  0.58526245     0.77500
O293        O  0.08680975  0.51915958  0.50665881    -0.58700
O294        O  0.19606381  0.62403807  0.53243945    -0.57100
O295        O  0.06074704  0.54201893  0.57252423    -0.57100
O296        O  0.15231538  0.56581576  0.59780204    -0.56300
O297        O  0.40924396  0.90628821  0.82987886    -0.57500
C298        C  0.35822523  0.82184830  0.90800364     0.75100
O299        O  0.45962377  0.83032307  0.86628079    -0.58600
C300        C  0.44139681  0.92166384  0.81322810     0.75100
C301        C  0.47911482  0.93304128  0.91620241     0.77500
Cd302      Cd  0.42967323  0.87167169  0.86932905     1.37500
O303        O  0.35685287  0.83936038  0.88208306    -0.57500
O304        O  0.44802817  0.92896721  0.90337437    -0.56300
C305        C  0.44299505  0.81337219  0.83919995     0.77500
O306        O  0.48888436  0.90882316  0.90671537    -0.58700
O307        O  0.39191734  0.82755207  0.91530647    -0.57100
O308        O  0.46655526  0.91294932  0.82228258    -0.57100
O309        O  0.42088654  0.82378981  0.82590977    -0.56300
O310        O  0.89062962  0.41438323  0.83843483    -0.57500
C311        C  0.80290852  0.35911750  0.77652750     0.75100
O312        O  0.81668532  0.46474254  0.79912295    -0.58600
C313        C  0.92227380  0.44767471  0.84224991     0.75100
C314        C  0.90141129  0.47638149  0.73376214     0.77500
Cd315      Cd  0.86196370  0.43842277  0.79604603     1.37500
O316        O  0.79440662  0.38155109  0.79186620    -0.57500
O317        O  0.87609987  0.43993523  0.73643030    -0.56300
C318        C  0.81545452  0.46477053  0.83070085     0.77500
O319        O  0.90725701  0.49676779  0.75975680    -0.58700
O320        O  0.83955687  0.37182443  0.77265816    -0.57100
O321        O  0.92644956  0.47520767  0.82358988    -0.57100
O322        O  0.83726340  0.45513575  0.84556272    -0.56300
O323        O  0.51173775  0.42825398  0.91799444    -0.57500
C324        C  0.55086180  0.36889894  0.99155646     0.75100
O325        O  0.63631696  0.47422447  0.94655406    -0.58600
C326        C  0.53004969  0.46433823  0.90899997     0.75100
C327        C  0.55156707  0.47714196  0.51655265     0.77500
Cd328      Cd  0.56424475  0.44014703  0.96001564     1.37500
O329        O  0.52352321  0.36766822  0.97390409    -0.57500
O330        O  0.52452970  0.44562417  0.00317071    -0.56300
C331        C  0.63080392  0.45527484  0.91953847     0.77500
O332        O  0.58619806  0.49238131  0.00401948    -0.58700
O333        O  0.58295814  0.40203763  0.99349586    -0.57100
O334        O  0.56205749  0.48744210  0.92415831    -0.57100
O335        O  0.59517423  0.42981361  0.91212433    -0.56300
O336        O  0.58874046  0.10783336  0.57254307    -0.57500
C337        C  0.64618651  0.19186794  0.65670350     0.75100
O338        O  0.54231842  0.18025171  0.60862711    -0.58600
C339        C  0.55411992  0.09383792  0.56058800     0.75100
C340        C  0.53809707  0.08071738  0.66685748     0.77500
Cd341      Cd  0.57629655  0.14269180  0.61858157     1.37500
O342        O  0.64907325  0.17795274  0.62896805    -0.57500
O343        O  0.56839041  0.08822430  0.64991205    -0.56300
C344        C  0.57139012  0.20687130  0.59168592     0.77500
O345        O  0.52387528  0.10251797  0.66154732    -0.58700
O346        O  0.61148995  0.18193756  0.66616222    -0.57100
O347        O  0.53169925  0.10298505  0.57538485    -0.57100
O348        O  0.60104998  0.20307865  0.58785312    -0.56300
C349        C  0.54647407  0.33419388  0.50956828    -0.04900
C350        C  0.50940196  0.29907960  0.51354388    -0.04800
C351        C  0.50606871  0.26738273  0.53190566    -0.23000
C352        C  0.53984262  0.27015187  0.54629080     0.19200
C353        C  0.57719905  0.30532197  0.54208706     0.16400
C354        C  0.58019005  0.33693333  0.52404008    -0.18000
C355        C  0.61126808  0.30833454  0.55564639    -0.19900
C356        C  0.60865666  0.27643169  0.57248626    -0.12400
C357        C  0.57189818  0.24109254  0.57670655     0.04200
C358        C  0.53727276  0.23827700  0.56412094    -0.24600
H359        H  0.48294837  0.29630240  0.50279862     0.09300
H360        H  0.47717035  0.24069469  0.53470891     0.12900
H361        H  0.60901417  0.36370804  0.52111080     0.12900
H362        H  0.64007519  0.33509565  0.55266545     0.12600
H363        H  0.63566646  0.27927002  0.58202190     0.13200
H364        H  0.50888213  0.21095358  0.56694642     0.15100
C365        C  0.78859899  0.47329937  0.84965451    -0.04900
C366        C  0.79657536  0.48476850  0.88323544    -0.04800
C367        C  0.76861300  0.48707747  0.90298471    -0.23000
C368        C  0.73164434  0.47685463  0.88975303     0.19200
C369        C  0.72367058  0.46612725  0.85576074     0.16400
C370        C  0.75252807  0.46526784  0.83574756    -0.18000
C371        C  0.68620677  0.45444967  0.84280181    -0.19900
C372        C  0.65643551  0.45179846  0.86358047    -0.12400
C373        C  0.66379531  0.46172952  0.89750345     0.04200
C374        C  0.70188950  0.47535174  0.91027129    -0.24600
H375        H  0.82418157  0.49102947  0.89447811     0.09300
H376        H  0.77528979  0.49532103  0.92894427     0.12900
H377        H  0.74586693  0.45582159  0.81000924     0.12900
H378        H  0.67950133  0.44609349  0.81686281     0.12600
H379        H  0.62733740  0.44149104  0.85315707     0.13200
H380        H  0.70771249  0.48276477  0.93647296     0.15100
C381        C  0.77124246  0.32160217  0.76198536    -0.04900
C382        C  0.73222538  0.30436407  0.77417816    -0.04800
C383        C  0.70049198  0.27370627  0.75693598    -0.23000
C384        C  0.70714029  0.26009322  0.72689107     0.19200
C385        C  0.74634481  0.27604321  0.71490059     0.16400
C386        C  0.77834224  0.30639729  0.73285759    -0.18000
C387        C  0.75253892  0.26253447  0.68445227    -0.19900
C388        C  0.72012177  0.23435092  0.66568214    -0.12400
C389        C  0.68106056  0.21915047  0.67716597     0.04200
C390        C  0.67497586  0.23176572  0.70812594    -0.24600
H391        H  0.72608471  0.31561993  0.79648459     0.09300
H392        H  0.67060461  0.26166785  0.76647263     0.12900
H393        H  0.80829365  0.31987581  0.72302900     0.12900
H394        H  0.78236114  0.27441528  0.67478949     0.12600
H395        H  0.72556169  0.22511496  0.64192558     0.13200
H396        H  0.64503782  0.22032180  0.71732886     0.15100
C397        C  0.45030471  0.94918217  0.78510789    -0.04900
C398        C  0.42929652  0.96843924  0.78045522    -0.04800
C399        C  0.44119597  0.99756618  0.75574150    -0.23000
C400        C  0.47420328  0.00772823  0.73526782     0.19200
C401        C  0.49444836  0.98736617  0.73928146     0.16400
C402        C  0.48235472  0.95835555  0.76391023    -0.18000
C403        C  0.52722471  0.99687204  0.71915871    -0.19900
C404        C  0.54055327  0.02685911  0.69562530    -0.12400
C405        C  0.52146145  0.04812385  0.69153398     0.04200
C406        C  0.48786202  0.03816246  0.71129191    -0.24600
H407        H  0.40446837  0.96185112  0.79657765     0.09300
H408        H  0.42509835  0.01261147  0.75307000     0.12900
H409        H  0.49859205  0.94347565  0.76705408     0.12900
H410        H  0.54295340  0.98143915  0.72190706     0.12600
H411        H  0.56635653  0.03365999  0.68077884     0.13200
H412        H  0.47281109  0.05424237  0.70833199     0.15100
C413        C  0.53944327  0.06806484  0.53094642    -0.04900
C414        C  0.50601297  0.06353490  0.51443324    -0.04800
C415        C  0.48924633  0.03766674  0.48780400    -0.23000
C416        C  0.50525906  0.01532987  0.47729429     0.19200
C417        C  0.53921557  0.01972415  0.99319540     0.16400
C418        C  0.55649243  0.04651473  0.51988514    -0.18000
C419        C  0.55446429  0.99651849  0.98251482    -0.19900
C420        C  0.53562651  0.96871193  0.95694633    -0.12400
C421        C  0.50148762  0.96395753  0.94152564     0.04200
C422        C  0.48700445  0.98795272  0.95157962    -0.24600
H423        H  0.49245552  0.07990616  0.52231012     0.09300
H424        H  0.46327132  0.03461636  0.47581995     0.12900
H425        H  0.58210414  0.04960788  0.53260118     0.12900
H426        H  0.58045076  0.99935634  0.99429939     0.12600
H427        H  0.54736988  0.95056488  0.94960374     0.13200
H428        H  0.46071843  0.98465859  0.93996869     0.15100
C429        C  0.95212771  0.45506348  0.86803373    -0.04900
C430        C  0.94314405  0.42801792  0.89411484    -0.04800
C431        C  0.96923134  0.43774854  0.92098042    -0.23000
C432        C  0.00472413  0.47474943  0.92224825     0.19200
C433        C  0.01472107  0.50134853  0.89532746     0.16400
C434        C  0.98858015  0.49127058  0.86842870    -0.18000
C435        C  0.04985561  0.53842484  0.89641795    -0.19900
C436        C  0.07372185  0.55007148  0.92471753    -0.12400
C437        C  0.06335002  0.52473301  0.95234369     0.04200
C438        C  0.02944832  0.48643274  0.95051671    -0.24600
H439        H  0.91519859  0.39994230  0.89440480     0.09300
H440        H  0.96102257  0.41686642  0.94127481     0.12900
H441        H  0.99595034  0.51237621  0.84839980     0.12900
H442        H  0.05812093  0.55905265  0.87588218     0.12600
H443        H  0.09985645  0.57956406  0.92541317     0.13200
H444        H  0.02105922  0.46673077  0.97176500     0.15100
C445        C  0.03658696  0.56264060  0.61815785    -0.04900
C446        C  0.04668816  0.58856689  0.64526275    -0.04800
C447        C  0.02057355  0.57872629  0.67237686    -0.23000
C448        C  0.98395773  0.54271000  0.67287777     0.19200
C449        C  0.97276411  0.51753141  0.64490111     0.16400
C450        C  0.99892058  0.52775062  0.61774416    -0.18000
C451        C  0.93640964  0.48149273  0.64516269    -0.19900
C452        C  0.91240317  0.46931713  0.67360657    -0.12400
C453        C  0.92396831  0.49305136  0.70228812     0.04200
C454        C  0.95925608  0.53047744  0.70137987    -0.24600
H455        H  0.07549285  0.61564076  0.64618539     0.09300
H456        H  0.02964945  0.59857676  0.69344731     0.12900
H457        H  0.99063195  0.50759782  0.59693977     0.12900
H458        H  0.92724885  0.46199863  0.62384322     0.12600
H459        H  0.88529269  0.44052336  0.67352046     0.13200
H460        H  0.96855804  0.54900216  0.72333792     0.15100
C461        C  0.22629311  0.68838472  0.00858777    -0.04900
C462        C  0.26477906  0.69991295  0.01897733    -0.04800
C463        C  0.29808323  0.73050361  0.00287765    -0.23000
C464        C  0.29355748  0.74962030  0.97549648     0.19200
C465        C  0.25506852  0.73927890  0.96530454     0.16400
C466        C  0.22151442  0.70902766  0.98230751    -0.18000
C467        C  0.25094650  0.75823736  0.93743381    -0.19900
C468        C  0.28449637  0.78596210  0.91918217    -0.12400
C469        C  0.32271657  0.79536980  0.92859667     0.04200
C470        C  0.32696364  0.77773717  0.95737200    -0.24600
H471        H  0.26912460  0.68450147  0.53919092     0.09300
H472        H  0.32735772  0.73819866  0.01107522     0.12900
H473        H  0.19193324  0.70002568  0.97388554     0.12900
H474        H  0.22177640  0.75085525  0.92922666     0.12600
H475        H  0.28044718  0.79932609  0.89724479     0.13200
H476        H  0.35623337  0.78485927  0.96509067     0.15100
C477        C  0.46801912  0.52296733  0.63415157    -0.04900
C478        C  0.44287491  0.48373079  0.62363007    -0.04800
C479        C  0.45507207  0.46724200  0.59940341    -0.23000
C480        C  0.49284929  0.48950012  0.58504600     0.19200
C481        C  0.51897710  0.52886296  0.59537179     0.16400
C482        C  0.50633218  0.54556577  0.61989749    -0.18000
C483        C  0.55700302  0.55056559  0.58073176    -0.19900
C484        C  0.56845276  0.53363132  0.55573688    -0.12400
C485        C  0.54199655  0.49483084  0.54487002     0.04200
C486        C  0.50446592  0.47289068  0.56012605    -0.24600
H487        H  0.41329781  0.46553756  0.63402310     0.09300
H488        H  0.43476574  0.43701842  0.59176450     0.12900
H489        H  0.52609625  0.57580008  0.62782072     0.12900
H490        H  0.57765970  0.58071124  0.58830779     0.12600
H491        H  0.59759447  0.55117480  0.54436518     0.13200
H492        H  0.48383559  0.44283371  0.55223983     0.15100
C493        C  0.44367498  0.50683026  0.79102007    -0.04900
C494        C  0.41781533  0.46758544  0.80136398    -0.04800
C495        C  0.42931303  0.45071207  0.82623742    -0.23000
C496        C  0.46674123  0.47292834  0.84143954     0.19200
C497        C  0.49269900  0.51243701  0.83117175     0.16400
C498        C  0.48116827  0.52891259  0.80608710    -0.18000
C499        C  0.52989140  0.53511381  0.84619457    -0.19900
C500        C  0.54136689  0.51906119  0.87135051    -0.12400
C501        C  0.51612331  0.47980924  0.88204172     0.04200
C502        C  0.47871438  0.45666070  0.86676377    -0.24600
H503        H  0.38887201  0.44980870  0.78996318     0.09300
H504        H  0.40892295  0.42036915  0.83362592     0.12900
H505        H  0.50146686  0.55920798  0.79842785     0.12900
H506        H  0.55013970  0.56543478  0.83858329     0.12600
H507        H  0.57036858  0.53759631  0.88240780     0.13200
H508        H  0.45895109  0.42637623  0.87471499     0.15100
C509        C  0.44800150  0.78216276  0.82434496    -0.04900
C510        C  0.45383293  0.75720070  0.84504593    -0.04800
C511        C  0.45447264  0.72503341  0.83172896    -0.23000
C512        C  0.45016314  0.71775396  0.79732915     0.19200
C513        C  0.44649578  0.74395856  0.77599864     0.16400
C514        C  0.44484362  0.77568916  0.78969109    -0.18000
C515        C  0.44366382  0.73737855  0.74145096    -0.19900
C516        C  0.44301573  0.70438600  0.72830962    -0.12400
C517        C  0.44434550  0.67701430  0.74951148     0.04200
C518        C  0.44847274  0.68419235  0.78401213    -0.24600
H519        H  0.45634403  0.76167445  0.87177405     0.09300
H520        H  0.45772084  0.70549153  0.84840425     0.12900
H521        H  0.44079995  0.79511362  0.77349669     0.12900
H522        H  0.44119897  0.75731611  0.72466473     0.12600
H523        H  0.43959283  0.69925949  0.70167852     0.13200
H524        H  0.44976413  0.66330736  0.80050857     0.15100
C525        C  0.19270914  0.53805562  0.60587177    -0.04900
C526        C  0.18681710  0.53331042  0.64056642    -0.04800
C527        C  0.21341812  0.52953321  0.66088665    -0.23000
C528        C  0.24714014  0.53161590  0.64699450     0.19200
C529        C  0.25274612  0.53546803  0.61200578     0.16400
C530        C  0.22512759  0.53781726  0.59165546    -0.18000
C531        C  0.28695634  0.53894134  0.59801901    -0.19900
C532        C  0.31615072  0.54035049  0.61845327    -0.12400
C533        C  0.31160140  0.53754764  0.65332104     0.04200
C534        C  0.27631576  0.53193897  0.66747747    -0.24600
H535        H  0.16200446  0.53340901  0.65209038     0.09300
H536        H  0.20844953  0.52656722  0.68757376     0.12900
H537        H  0.23027230  0.54202993  0.56500630     0.12900
H538        H  0.29182103  0.54197410  0.57131879     0.12600
H539        H  0.34293233  0.54448344  0.60687920     0.13200
H540        H  0.27261914  0.53011120  0.69432155     0.15100
loop_ 
_geom_bond_atom_site_label_1 
_geom_bond_atom_site_label_2 
_geom_bond_distance 
_geom_bond_site_symmetry_2 
_ccdc_geom_bond_type 
O1            C4   1.273       .  A
O1           Cd6   2.531       .  S
C2           O11   1.265       .  A
C2            O7   1.270       .  A
C2          C247   1.481       .  S
O3            C9   1.272       .  A
O3           Cd6   2.539       .  S
C4           O12   1.265       .  A
C4          C207   1.486       .  S
C5           O10   1.273       .  A
C5            O8   1.267       .  A
C5          C223   1.487       .  S
Cd6          O13   2.414       .  S
Cd6          O12   2.402       .  S
Cd6          O11   2.458       .  S
Cd6           O7   2.504       .  S
Cd6          O10   2.512       .  S
Cd6           O8   2.431       .  S
C9           O13   1.263       .  A
C9          C263   1.485       .  S
O14          C17   1.268       .  A
O14         Cd19   2.505       .  S
C15          O24   1.264       .  A
C15          O20   1.268       .  A
C15         C461   1.480       .  S
O16          C22   1.270       .  A
O16         Cd19   2.509       .  S
C17          O25   1.265       .  A
C17         C175   1.485       .  S
C18         O293   1.269       .  A
C18         O291   1.263       .  A
C18         C167   1.482       .  S
Cd19         O26   2.458       .  S
Cd19         O25   2.453       .  S
Cd19         O24   2.442       .  S
Cd19         O20   2.517       .  S
Cd19         O23   2.531       .  S
Cd19         O21   2.435   1_554  S
O21         C288   1.263       .  A
C22          O26   1.264       .  A
C22         C255   1.483       .  S
O23         C288   1.269   1_554  A
O27          C30   1.270       .  A
O27         Cd32   2.496       .  S
C28          O37   1.263       .  A
C28          O33   1.269       .  A
C28         C199   1.484       .  S
O29          C35   1.268       .  A
O29         Cd32   2.481       .  S
C30          O38   1.266       .  A
C30         C127   1.479       .  S
C31          O36   1.268       .  A
C31          O34   1.263       .  A
C31         C151   1.481       .  S
Cd32         O39   2.468       .  S
Cd32         O38   2.419       .  S
Cd32         O37   2.438       .  S
Cd32         O33   2.510       .  S
Cd32         O36   2.513       .  S
Cd32         O34   2.421       .  S
C35          O39   1.266       .  A
C35         C239   1.480       .  S
O40          C43   1.268       .  A
O40         Cd45   2.498       .  S
C41          O50   1.268       .  A
C41          O46   1.264       .  A
C41         C111   1.477       .  S
O42          C48   1.268       .  A
O42         Cd45   2.503       .  S
C43          O51   1.264       .  A
C43         C159   1.482       .  S
C44          O49   1.267       .  A
C44          O47   1.262       .  A
C44         C183   1.483       .  S
Cd45         O52   2.450       .  S
Cd45         O51   2.444       .  S
Cd45         O50   2.496       .  S
Cd45         O46   2.439       .  S
Cd45         O49   2.517       .  S
Cd45         O47   2.448       .  S
C48          O52   1.263       .  A
C48          C95   1.479       .  S
O53          C56   1.274       .  A
O53         Cd58   2.524       .  S
C54          O63   1.265       .  A
C54          O59   1.273       .  A
C54         C349   1.485       .  S
O55          C61   1.273       .  A
O55         Cd58   2.486       .  S
C56          O64   1.266       .  A
C56         C231   1.487       .  S
C57         O332   1.272       .  A
C57         O330   1.266       .  A
C57         C215   1.484       .  S
Cd58         O65   2.420       .  S
Cd58         O64   2.406       .  S
Cd58         O63   2.415       .  S
Cd58         O59   2.518       .  S
Cd58         O62   2.512       .  S
Cd58         O60   2.417       .  S
O60         C327   1.266       .  A
C61          O65   1.267       .  A
C61         C103   1.478       .  S
O62         C327   1.272       .  A
O66          C69   1.272       .  A
O66         Cd71   2.506       .  S
C67          O76   1.268       .  A
C67          O72   1.274       .  A
C67         C119   1.481       .  S
O68          C74   1.273       .  A
O68         Cd71   2.509       .  S
C69          O77   1.266       .  A
C69         C143   1.478       .  S
C70          O75   1.274       .  A
C70          O73   1.266       .  A
C70         C135   1.482       .  S
Cd71         O78   2.403       .  S
Cd71         O77   2.390       .  S
Cd71         O76   2.401       .  S
Cd71         O72   2.488       .  S
Cd71         O75   2.513       .  S
Cd71         O73   2.379       .  S
C74          O78   1.266       .  A
C74          C87   1.478       .  S
C79         C324   1.485   1_554  S
C79          C80   1.406       .  A
C79          C84   1.406       .  A
C80          C81   1.405       .  A
C80          H89   1.083       .  S
C81          C82   1.406       .  A
C81          H90   1.083       .  S
C82          C88   1.412       .  A
C82          C83   1.414       .  A
C83          C85   1.400       .  A
C83          C84   1.401       .  A
C84          H91   1.083       .  S
C85          C86   1.393       .  A
C85          H92   1.083       .  S
C86          C87   1.405       .  A
C86          H93   1.084       .  S
C87          C88   1.408       .  A
C88          H94   1.083       .  S
C95          C96   1.406       .  A
C95         C100   1.405       .  A
C96          C97   1.398       .  A
C96         H105   1.084       .  S
C97          C98   1.402       .  A
C97         H106   1.083       .  S
C98         C104   1.407       .  A
C98          C99   1.416       .  A
C99         C101   1.401       .  A
C99         C100   1.406       .  A
C100        H107   1.084       .  S
C101        C102   1.397       .  A
C101        H108   1.084       .  S
C102        C103   1.406       .  A
C102        H109   1.084       .  S
C103        C104   1.405       .  A
C104        H110   1.085       .  S
C111        C112   1.404       .  A
C111        C116   1.409       .  A
C112        C113   1.394       .  A
C112        H121   1.082       .  S
C113        C114   1.400       .  A
C113        H122   1.083       .  S
C114        C120   1.400       .  A
C114        C115   1.413       .  A
C115        C117   1.406       .  A
C115        C116   1.408       .  A
C116        H123   1.084       .  S
C117        C118   1.403       .  A
C117        H124   1.084       .  S
C118        C119   1.405       .  A
C118        H125   1.082       .  S
C119        C120   1.406       .  A
C120        H126   1.084       .  S
C127        C128   1.406       .  A
C127        C132   1.402       .  A
C128        C129   1.404       .  A
C128        H137   1.084       .  S
C129        C130   1.406   1_565  A
C129        H138   1.083   1_565  S
C130        C136   1.412       .  A
C130        C131   1.414   1_545  A
C131        C133   1.396       .  A
C131        C132   1.398       .  A
C132        H139   1.084       .  S
C133        C134   1.389   1_565  A
C133        H140   1.084       .  S
C134        C135   1.407       .  A
C134        H141   1.083       .  S
C135        C136   1.410       .  A
C136        H142   1.084       .  S
C143        C144   1.405       .  A
C143        C148   1.409       .  A
C144        C145   1.390   1_554  A
C144        H153   1.083       .  S
C145        C146   1.397       .  A
C145        H154   1.083       .  S
C146        C422   1.398   1_545  A
C146        C417   1.414       .  A
C147        C149   1.406   1_545  A
C147        C416   1.414       .  A
C147        C418   1.411       .  A
C148        C417   1.411   1_554  A
C148        H155   1.083       .  S
C149        C150   1.405       .  A
C149        H156   1.083       .  S
C150        C151   1.406       .  A
C150        H157   1.083       .  S
C151        C152   1.403       .  A
C152        C416   1.398   1_565  A
C152        H158   1.084       .  S
C159        C160   1.406       .  A
C159        C164   1.406       .  A
C160        C161   1.402       .  A
C160        H169   1.084       .  S
C161        C162   1.405   1_655  A
C161        H170   1.083       .  S
C162        C168   1.411       .  A
C162        C163   1.415       .  A
C163        C165   1.400       .  A
C163        C164   1.403   1_455  A
C164        H171   1.085       .  S
C165        C166   1.395       .  A
C165        H172   1.084       .  S
C166        C167   1.406       .  A
C166        H173   1.084       .  S
C167        C168   1.408       .  A
C168        H174   1.085       .  S
C175        C176   1.406       .  A
C175        C180   1.406   1_455  A
C176        C177   1.403       .  A
C176        H185   1.083       .  S
C177        C178   1.405   1_455  A
C177        H186   1.083       .  S
C178        C184   1.411       .  A
C178        C179   1.414       .  A
C179        C181   1.400       .  A
C179        C180   1.404       .  A
C180        H187   1.083       .  S
C181        C182   1.395       .  A
C181        H188   1.083       .  S
C182        C183   1.406       .  A
C182        H189   1.083       .  S
C183        C184   1.409       .  A
C184        H190   1.083       .  S
C191        C285   1.480       .  S
C191        C192   1.404       .  A
C191        C196   1.409       .  A
C192        C193   1.394       .  A
C192        H471   1.084       .  S
C193        C194   1.401       .  A
C193        H202   1.082       .  S
C194        C200   1.402       .  A
C194        C195   1.414       .  A
C195        C197   1.406       .  A
C195        C196   1.411       .  A
C196        H203   1.083       .  S
C197        C198   1.403       .  A
C197        H204   1.082       .  S
C198        C199   1.405       .  A
C198        H205   1.083       .  S
C199        C200   1.407       .  A
C200        H206   1.083       .  S
H201        C462   1.084       .  S
C207        C208   1.407       .  A
C207        C212   1.412       .  A
C208        C209   1.390       .  A
C208        H217   1.083       .  S
C209        C210   1.397       .  A
C209        H218   1.084       .  S
C210        C216   1.400       .  A
C210        C211   1.414       .  A
C211        C213   1.407       .  A
C211        C212   1.415       .  A
C212        H219   1.084       .  S
C213        C214   1.407       .  A
C213        H220   1.083       .  S
C214        C215   1.406       .  A
C214        H221   1.084       .  S
C215        C216   1.404       .  A
C216        H222   1.084       .  S
C223        C224   1.407       .  A
C223        C228   1.406       .  A
C224        C225   1.406       .  A
C224        H233   1.084       .  S
C225        C226   1.406       .  A
C225        H234   1.083       .  S
C226        C232   1.414       .  A
C226        C227   1.414       .  A
C227        C229   1.398       .  A
C227        C228   1.402       .  A
C228        H235   1.084       .  S
C229        C230   1.393       .  A
C229        H236   1.084       .  S
C230        C231   1.408       .  A
C230        H237   1.083       .  S
C231        C232   1.411       .  A
C232        H238   1.084       .  S
C239        C240   1.404       .  A
C239        C244   1.408       .  A
C240        C241   1.398       .  A
C240        H249   1.084       .  S
C241        C242   1.403       .  A
C241        H250   1.083       .  S
C242        C248   1.406       .  A
C242        C243   1.414       .  A
C243        C245   1.405       .  A
C243        C244   1.408       .  A
C244        H251   1.084       .  S
C245        C246   1.402       .  A
C245        H252   1.083       .  S
C246        C247   1.404       .  A
C246        H253   1.084       .  S
C247        C248   1.406       .  A
C248        H254   1.084       .  S
C255        C256   1.407       .  A
C255        C260   1.404       .  A
C256        C257   1.402       .  A
C256        H265   1.084       .  S
C257        C258   1.403       .  A
C257        H266   1.083       .  S
C258        C264   1.413       .  A
C258        C259   1.416       .  A
C259        C261   1.399       .  A
C259        C260   1.407       .  A
C260        H267   1.084       .  S
C261        C262   1.395       .  A
C261        H268   1.083       .  S
C262        C263   1.407       .  A
C262        H269   1.084       .  S
C263        C264   1.408       .  A
C264        H270   1.084       .  S
O271        C274   1.273       .  A
O271       Cd276   2.531       .  S
C272        O281   1.265       .  A
C272        O277   1.270       .  A
C272        C517   1.481       .  S
O273        C279   1.272       .  A
O273       Cd276   2.539       .  S
C274        O282   1.265       .  A
C274        C477   1.486       .  S
C275        O280   1.273       .  A
C275        O278   1.267       .  A
C275        C493   1.487       .  S
Cd276       O283   2.414       .  S
Cd276       O282   2.402       .  S
Cd276       O281   2.458       .  S
Cd276       O277   2.504       .  S
Cd276       O280   2.512       .  S
Cd276       O278   2.431       .  S
C279        O283   1.263       .  A
C279        C533   1.485       .  S
O284        C287   1.268       .  A
O284       Cd289   2.505       .  S
C285        O294   1.264       .  A
C285        O290   1.268       .  A
O286        C292   1.270       .  A
O286       Cd289   2.509       .  S
C287        O295   1.265       .  A
C287        C445   1.485       .  S
C288        C437   1.482       .  S
Cd289       O296   2.458       .  S
Cd289       O295   2.453       .  S
Cd289       O294   2.442       .  S
Cd289       O290   2.517       .  S
Cd289       O293   2.531       .  S
Cd289       O291   2.435       .  S
C292        O296   1.264       .  A
C292        C525   1.483       .  S
O297        C300   1.270       .  A
O297       Cd302   2.496       .  S
C298        O307   1.263       .  A
C298        O303   1.269       .  A
C298        C469   1.484       .  S
O299        C305   1.268       .  A
O299       Cd302   2.481       .  S
C300        O308   1.266       .  A
C300        C397   1.479       .  S
C301        O306   1.268       .  A
C301        O304   1.263       .  A
C301        C421   1.481       .  S
Cd302       O309   2.468       .  S
Cd302       O308   2.419       .  S
Cd302       O307   2.438       .  S
Cd302       O303   2.510       .  S
Cd302       O306   2.513       .  S
Cd302       O304   2.421       .  S
C305        O309   1.266       .  A
C305        C509   1.480       .  S
O310        C313   1.268       .  A
O310       Cd315   2.498       .  S
C311        O320   1.268       .  A
C311        O316   1.264       .  A
C311        C381   1.477       .  S
O312        C318   1.268       .  A
O312       Cd315   2.503       .  S
C313        O321   1.264       .  A
C313        C429   1.482       .  S
C314        O319   1.267       .  A
C314        O317   1.262       .  A
C314        C453   1.483       .  S
Cd315       O322   2.450       .  S
Cd315       O321   2.444       .  S
Cd315       O320   2.496       .  S
Cd315       O316   2.439       .  S
Cd315       O319   2.517       .  S
Cd315       O317   2.448       .  S
C318        O322   1.263       .  A
C318        C365   1.479       .  S
O323        C326   1.274       .  A
O323       Cd328   2.524       .  S
C324        O333   1.265       .  A
C324        O329   1.273       .  A
O325        C331   1.273       .  A
O325       Cd328   2.486       .  S
C326        O334   1.266       .  A
C326        C501   1.487       .  S
C327        C485   1.484       .  S
Cd328       O335   2.420       .  S
Cd328       O334   2.406       .  S
Cd328       O333   2.415       .  S
Cd328       O329   2.518       .  S
Cd328       O332   2.512   1_556  S
Cd328       O330   2.417   1_556  S
C331        O335   1.267       .  A
C331        C373   1.478       .  S
O336        C339   1.272       .  A
O336       Cd341   2.506       .  S
C337        O346   1.268       .  A
C337        O342   1.274       .  A
C337        C389   1.481       .  S
O338        C344   1.273       .  A
O338       Cd341   2.509       .  S
C339        O347   1.266       .  A
C339        C413   1.478       .  S
C340        O345   1.274       .  A
C340        O343   1.266       .  A
C340        C405   1.482       .  S
Cd341       O348   2.403       .  S
Cd341       O347   2.390       .  S
Cd341       O346   2.401       .  S
Cd341       O342   2.488       .  S
Cd341       O345   2.513       .  S
Cd341       O343   2.379       .  S
C344        O348   1.266       .  A
C344        C357   1.478       .  S
C349        C350   1.406       .  A
C349        C354   1.406       .  A
C350        C351   1.405       .  A
C350        H359   1.083       .  S
C351        C352   1.406       .  A
C351        H360   1.083       .  S
C352        C358   1.412       .  A
C352        C353   1.414       .  A
C353        C355   1.400       .  A
C353        C354   1.401       .  A
C354        H361   1.083       .  S
C355        C356   1.393       .  A
C355        H362   1.083       .  S
C356        C357   1.405       .  A
C356        H363   1.084       .  S
C357        C358   1.408       .  A
C358        H364   1.083       .  S
C365        C366   1.406       .  A
C365        C370   1.405       .  A
C366        C367   1.398       .  A
C366        H375   1.084       .  S
C367        C368   1.402       .  A
C367        H376   1.083       .  S
C368        C374   1.407       .  A
C368        C369   1.416       .  A
C369        C371   1.401       .  A
C369        C370   1.406       .  A
C370        H377   1.084       .  S
C371        C372   1.397       .  A
C371        H378   1.084       .  S
C372        C373   1.406       .  A
C372        H379   1.084       .  S
C373        C374   1.405       .  A
C374        H380   1.085       .  S
C381        C382   1.404       .  A
C381        C386   1.409       .  A
C382        C383   1.394       .  A
C382        H391   1.082       .  S
C383        C384   1.400       .  A
C383        H392   1.083       .  S
C384        C390   1.400       .  A
C384        C385   1.413       .  A
C385        C387   1.406       .  A
C385        C386   1.408       .  A
C386        H393   1.084       .  S
C387        C388   1.403       .  A
C387        H394   1.084       .  S
C388        C389   1.405       .  A
C388        H395   1.082       .  S
C389        C390   1.406       .  A
C390        H396   1.084       .  S
C397        C398   1.406       .  A
C397        C402   1.402       .  A
C398        C399   1.404       .  A
C398        H407   1.084       .  S
C399        C400   1.406   1_565  A
C399        H408   1.083   1_565  S
C400        C406   1.412       .  A
C400        C401   1.414   1_545  A
C401        C403   1.396       .  A
C401        C402   1.398       .  A
C402        H409   1.084       .  S
C403        C404   1.389   1_565  A
C403        H410   1.084       .  S
C404        C405   1.407       .  A
C404        H411   1.083       .  S
C405        C406   1.410       .  A
C406        H412   1.084       .  S
C413        C414   1.405       .  A
C413        C418   1.409       .  A
C414        C415   1.390       .  A
C414        H423   1.083       .  S
C415        C416   1.397       .  A
C415        H424   1.083       .  S
C417        C419   1.406   1_545  A
C418        H425   1.083       .  S
C419        C420   1.405       .  A
C419        H426   1.083       .  S
C420        C421   1.406       .  A
C420        H427   1.083       .  S
C421        C422   1.403       .  A
C422        H428   1.084       .  S
C429        C430   1.406       .  A
C429        C434   1.406       .  A
C430        C431   1.402       .  A
C430        H439   1.084       .  S
C431        C432   1.405   1_655  A
C431        H440   1.083       .  S
C432        C438   1.411       .  A
C432        C433   1.415       .  A
C433        C435   1.400       .  A
C433        C434   1.403   1_455  A
C434        H441   1.085       .  S
C435        C436   1.395       .  A
C435        H442   1.084       .  S
C436        C437   1.406       .  A
C436        H443   1.084       .  S
C437        C438   1.408       .  A
C438        H444   1.085       .  S
C445        C446   1.406       .  A
C445        C450   1.406   1_455  A
C446        C447   1.403       .  A
C446        H455   1.083       .  S
C447        C448   1.405   1_455  A
C447        H456   1.083       .  S
C448        C454   1.411       .  A
C448        C449   1.414       .  A
C449        C451   1.400       .  A
C449        C450   1.404       .  A
C450        H457   1.083       .  S
C451        C452   1.395       .  A
C451        H458   1.083       .  S
C452        C453   1.406       .  A
C452        H459   1.083       .  S
C453        C454   1.409       .  A
C454        H460   1.083       .  S
C461        C462   1.404       .  A
C461        C466   1.409   1_554  A
C462        C463   1.394       .  A
C463        C464   1.401   1_554  A
C463        H472   1.082       .  S
C464        C470   1.402       .  A
C464        C465   1.414       .  A
C465        C467   1.406       .  A
C465        C466   1.411       .  A
C466        H473   1.083       .  S
C467        C468   1.403       .  A
C467        H474   1.082       .  S
C468        C469   1.405       .  A
C468        H475   1.083       .  S
C469        C470   1.407       .  A
C470        H476   1.083       .  S
C477        C478   1.407       .  A
C477        C482   1.412       .  A
C478        C479   1.390       .  A
C478        H487   1.083       .  S
C479        C480   1.397       .  A
C479        H488   1.084       .  S
C480        C486   1.400       .  A
C480        C481   1.414       .  A
C481        C483   1.407       .  A
C481        C482   1.415       .  A
C482        H489   1.084       .  S
C483        C484   1.407       .  A
C483        H490   1.083       .  S
C484        C485   1.406       .  A
C484        H491   1.084       .  S
C485        C486   1.404       .  A
C486        H492   1.084       .  S
C493        C494   1.407       .  A
C493        C498   1.406       .  A
C494        C495   1.406       .  A
C494        H503   1.084       .  S
C495        C496   1.406       .  A
C495        H504   1.083       .  S
C496        C502   1.414       .  A
C496        C497   1.414       .  A
C497        C499   1.398       .  A
C497        C498   1.402       .  A
C498        H505   1.084       .  S
C499        C500   1.393       .  A
C499        H506   1.084       .  S
C500        C501   1.408       .  A
C500        H507   1.083       .  S
C501        C502   1.411       .  A
C502        H508   1.084       .  S
C509        C510   1.404       .  A
C509        C514   1.408       .  A
C510        C511   1.398       .  A
C510        H519   1.084       .  S
C511        C512   1.403       .  A
C511        H520   1.083       .  S
C512        C518   1.406       .  A
C512        C513   1.414       .  A
C513        C515   1.405       .  A
C513        C514   1.408       .  A
C514        H521   1.084       .  S
C515        C516   1.402       .  A
C515        H522   1.083       .  S
C516        C517   1.404       .  A
C516        H523   1.084       .  S
C517        C518   1.406       .  A
C518        H524   1.084       .  S
C525        C526   1.407       .  A
C525        C530   1.404       .  A
C526        C527   1.402       .  A
C526        H535   1.084       .  S
C527        C528   1.403       .  A
C527        H536   1.083       .  S
C528        C534   1.413       .  A
C528        C529   1.416       .  A
C529        C531   1.399       .  A
C529        C530   1.407       .  A
C530        H537   1.084       .  S
C531        C532   1.395       .  A
C531        H538   1.083       .  S
C532        C533   1.407       .  A
C532        H539   1.084       .  S
C533        C534   1.408       .  A
C534        H540   1.084       .  S
