geometry optimzed in LAMMPS
_audit_creation_date              2020-12-01 
_audit_creation_method            'lammps2cif' 
_symmetry_space_group_name_H-M    'P1' 
_symmetry_Int_Tables_number       1 
_symmetry_cell_setting            triclinic 
loop_ 
_symmetry_equiv_pos_as_xyz 
  x,y,z 
_cell_length_a                    43.36156714 
_cell_length_b                    43.412515192075695 
_cell_length_c                    73.25928768883934 
_cell_angle_alpha                 90.0983081505726 
_cell_angle_beta                  89.9793192286279 
_cell_angle_gamma                 90.15259885209663 
loop_ 
_atom_site_label 
_atom_site_type_symbol 
_atom_site_fract_x 
_atom_site_fract_y 
_atom_site_fract_z 
_atom_site_charge 
O1          O  0.15636375  0.84288562  0.52460044    -0.72900
O2          O  0.07744461  0.85123674  0.55300224    -0.73900
O3          O  0.10370975  0.88071902  0.52263672    -0.62500
O4          O  0.12973145  0.81254673  0.55484923    -0.70900
O5          O  0.15256716  0.84528993  0.57374978    -0.70500
O6          O  0.12514820  0.91494183  0.54132475    -0.61700
O7          O  0.10049679  0.88448273  0.57155529    -0.74200
O8          O  0.17832046  0.87664701  0.54322701    -0.73000
Cu9        Cu  0.11617524  0.84563969  0.53811984     1.04600
Cu10       Cu  0.14012331  0.88146626  0.55808478     1.04300
C11         C  0.17987802  0.85874919  0.52942557     0.93300
C12         C  0.07641824  0.86979637  0.56657767     0.92400
C13         C  0.10895676  0.90856608  0.52722526     0.84600
C14         C  0.14472557  0.81775840  0.56951237     0.90800
O15         O  0.82978888  0.82025114  0.64478642    -0.72900
O16         O  0.82714535  0.89992600  0.67230659    -0.73900
O17         O  0.86197310  0.87678958  0.64209296    -0.62500
O18         O  0.79562617  0.84222605  0.67469353    -0.70900
O19         O  0.83223270  0.82421739  0.69300877    -0.70500
O20         O  0.89751872  0.85976946  0.66132939    -0.61700
O21         O  0.86310615  0.88264060  0.69119210    -0.74200
O22         O  0.86629877  0.80249678  0.66307530    -0.73000
Cu23       Cu  0.82740262  0.86063024  0.65787072     1.04600
Cu24       Cu  0.86600744  0.84189490  0.67789343     1.04300
C25         C  0.84805515  0.79865053  0.64952853     0.93300
C26         C  0.84483431  0.90403561  0.68603293     0.92400
C27         C  0.89029091  0.87275688  0.64633347     0.84600
C28         C  0.80394600  0.82609396  0.68838734     0.90800
O29         O  0.16118012  0.60277666  0.69154382    -0.72900
O30         O  0.08999584  0.57625281  0.66083539    -0.73900
O31         O  0.12197220  0.55057662  0.69080920    -0.62500
O32         O  0.12885513  0.62845070  0.66198592    -0.70900
O33         O  0.16089894  0.60581942  0.64258547    -0.70500
O34         O  0.15475025  0.52776738  0.67199306    -0.61700
O35         O  0.12213122  0.55303676  0.64180246    -0.74200
O36         O  0.19368443  0.58099348  0.67196011    -0.73000
Cu37       Cu  0.12437142  0.59017154  0.67698194     1.04600
Cu38       Cu  0.15894698  0.56590757  0.65644180     1.04300
C39         C  0.18862902  0.59722223  0.68617016     0.93300
C40         C  0.09475986  0.56085807  0.64624322     0.92400
C41         C  0.13733005  0.52681946  0.68610026     0.84600
C42         C  0.14610344  0.62966939  0.64787396     0.90800
O43         O  0.86029798  0.50913797  0.54257214    -0.72900
O44         O  0.83790827  0.58196986  0.57437742    -0.73900
O45         O  0.80779044  0.54917915  0.54523050    -0.62500
O46         O  0.88802719  0.54091505  0.57110875    -0.70900
O47         O  0.91057118  0.57178954  0.55107430    -0.70500
O48         O  0.82889822  0.58110617  0.52526353    -0.61700
O49         O  0.86002841  0.61286008  0.55420932    -0.74200
O50         O  0.88073564  0.54134487  0.52239784    -0.73000
Cu51       Cu  0.84743515  0.54431378  0.55895750     1.04600
Cu52       Cu  0.87054173  0.57797534  0.53751606     1.04300
C53         C  0.87591418  0.51397347  0.52802407     0.93300
C54         C  0.84693225  0.60891043  0.56964763     0.92400
C55         C  0.80542932  0.56604633  0.53104254     0.84600
C56         C  0.91221723  0.55407652  0.56497990     0.90800
O57         O  0.63712238  0.60825279  0.80511737    -0.72900
O58         O  0.68557674  0.66161517  0.77102086    -0.73900
O59         O  0.65979730  0.66894737  0.80599912    -0.62500
O60         O  0.66311546  0.60023646  0.76988128    -0.70900
O61         O  0.62028493  0.61678663  0.75673688    -0.70500
O62         O  0.61619974  0.68513976  0.79359606    -0.61700
O63         O  0.64238020  0.67851239  0.75848497    -0.74200
O64         O  0.59391512  0.62398074  0.79191622    -0.73000
Cu65       Cu  0.66293035  0.63410291  0.78834922     1.04600
Cu66       Cu  0.61669584  0.65161239  0.77467953     1.04300
C67         C  0.60770569  0.60832284  0.80418071     0.93300
C68         C  0.67175626  0.67917825  0.75971057     0.92400
C69         C  0.63727668  0.68781540  0.80569598     0.84600
C70         C  0.64228019  0.59731698  0.75768616     0.90800
O71         O  0.44406757  0.53899543  0.90509243    -0.72900
O72         O  0.37203615  0.53699026  0.93930350    -0.73900
O73         O  0.38292549  0.56019179  0.90344193    -0.62500
O74         O  0.43405041  0.51594730  0.94067224    -0.70900
O75         O  0.44968626  0.56083393  0.95182859    -0.70500
O76         O  0.39646961  0.60481944  0.91588728    -0.61700
O77         O  0.38745753  0.58109990  0.95150496    -0.74200
O78         O  0.45775293  0.58458342  0.91624405    -0.73000
Cu79       Cu  0.40763677  0.53641293  0.92180866     1.04600
Cu80       Cu  0.42325287  0.58432463  0.93436770     1.04300
C81         C  0.46180992  0.56251595  0.90494486     0.93300
C82         C  0.36829815  0.55873437  0.95087486     0.92400
C83         C  0.38250912  0.58963381  0.90343319     0.84600
C84         C  0.45085325  0.53145444  0.95171485     0.90800
O85         O  0.30200255  0.76402902  0.76539439    -0.72900
O86         O  0.34721444  0.81015765  0.80480613    -0.73900
O87         O  0.32386576  0.82554236  0.76992172    -0.62500
O88         O  0.32451751  0.74984356  0.80032919    -0.70900
O89         O  0.36928512  0.73585401  0.78840335    -0.70500
O90         O  0.36815686  0.81220813  0.75714853    -0.61700
O91         O  0.39146865  0.79671450  0.79197312    -0.74200
O92         O  0.34674112  0.75035886  0.75331208    -0.73000
Cu93       Cu  0.32281542  0.78796099  0.78543642     1.04600
Cu94       Cu  0.37041900  0.77339277  0.77218203     1.04300
C95         C  0.31738994  0.74874161  0.75355747     0.93300
C96         C  0.37670753  0.81004617  0.80480285     0.92400
C97         C  0.34600879  0.83139646  0.75899781     0.84600
C98         C  0.34704183  0.73105407  0.79953574     0.90800
O99         O  0.60361785  0.87794506  0.94638502    -0.72900
O100        O  0.53325972  0.87943802  0.91112327    -0.73900
O101        O  0.54225145  0.90143632  0.94719485    -0.62500
O102        O  0.59358404  0.85600986  0.91036231    -0.70900
O103        O  0.57707903  0.81179384  0.92195779    -0.70500
O104        O  0.52539820  0.85698866  0.95820338    -0.61700
O105        O  0.51660367  0.83497399  0.92221296    -0.74200
O106        O  0.58690995  0.83376816  0.95780255    -0.73000
Cu107      Cu  0.56881943  0.88032561  0.92849437     1.04600
Cu108      Cu  0.55094978  0.83291640  0.94052273     1.04300
C109        C  0.60690861  0.85544511  0.95742025     0.93300
C110        C  0.51419327  0.85697411  0.91073122     0.92400
C111        C  0.52493865  0.88638234  0.95817517     0.84600
C112        C  0.59277563  0.82658036  0.91010046     0.90800
O113        O  0.60911313  0.41044036  0.04122020    -0.72900
O114        O  0.64264059  0.34279010  0.07324516    -0.73900
O115        O  0.66533529  0.37616456  0.04277685    -0.62500
O116        O  0.58720533  0.37726459  0.07196230    -0.70900
O117        O  0.56637265  0.34259436  0.05350702    -0.70500
O118        O  0.64561892  0.34076672  0.02436445    -0.61700
O119        O  0.62195254  0.30829202  0.05453737    -0.74200
O120        O  0.58992991  0.37467169  0.02277206    -0.73000
Cu121      Cu  0.62683899  0.37793942  0.05791244     1.04600
Cu122      Cu  0.60529813  0.34043417  0.03813471     1.04300
C123        C  0.59380371  0.40294263  0.02695599     0.93300
C124        C  0.63730077  0.31472464  0.06888351     0.92400
C125        C  0.66820780  0.35798894  0.02914516     0.84600
C126        C  0.56440403  0.36014090  0.06753755     0.90800
O127        O  0.37752529  0.34266643  0.16352230    -0.72900
O128        O  0.30432111  0.32238601  0.19411289    -0.73900
O129        O  0.33635165  0.29247520  0.16584627    -0.62500
O130        O  0.34466253  0.37333244  0.19208028    -0.70900
O131        O  0.31401043  0.39506708  0.17165707    -0.70500
O132        O  0.30565496  0.31442356  0.14547134    -0.61700
O133        O  0.27294157  0.34325073  0.17366154    -0.74200
O134        O  0.34753524  0.36456083  0.14285502    -0.73000
Cu135      Cu  0.34181185  0.33218590  0.17960967     1.04600
Cu136      Cu  0.30903803  0.35536947  0.15772401     1.04300
C137        C  0.37428080  0.35562079  0.14800497     0.93300
C138        C  0.27714256  0.32810591  0.18840822     0.92400
C139        C  0.31929532  0.29061250  0.15165304     0.84600
C140        C  0.33013582  0.39691544  0.18622263     0.90800
O141        O  0.65375583  0.03038018  0.17440599    -0.72900
O142        O  0.66229177  0.10789075  0.14617518    -0.73900
O143        O  0.69456789  0.08248621  0.17578084    -0.62500
O144        O  0.62134715  0.05733870  0.14507507    -0.70900
O145        O  0.59084936  0.08138886  0.16468453    -0.70500
O146        O  0.66241705  0.10425245  0.19552485    -0.61700
O147        O  0.63166154  0.13206217  0.16566718    -0.74200
O148        O  0.62168425  0.05276000  0.19382045    -0.73000
Cu149      Cu  0.65913848  0.06859352  0.15976292     1.04600
Cu150      Cu  0.62563352  0.09337640  0.18066294     1.04300
C151        C  0.63571481  0.02868831  0.18812505     0.93300
C152        C  0.64842627  0.13227058  0.15126417     0.92400
C153        C  0.68978330  0.09807149  0.19034281     0.84600
C154        C  0.59443060  0.06611055  0.14996172     0.90800
O155        O  0.32769529  0.08150560  0.02573341    -0.72900
O156        O  0.40534889  0.07835899  0.05609513    -0.73900
O157        O  0.38314090  0.04628134  0.02508721    -0.62500
O158        O  0.35041538  0.11388668  0.05654921    -0.70900
O159        O  0.32816450  0.07956372  0.07466937    -0.70500
O160        O  0.36279599  0.01139561  0.04370034    -0.61700
O161        O  0.38270008  0.04450923  0.07432159    -0.74200
O162        O  0.30694955  0.04627151  0.04380006    -0.73000
Cu163      Cu  0.36733747  0.08122421  0.04017455     1.04600
Cu164      Cu  0.34427555  0.04424958  0.05967444     1.04300
C165        C  0.30484529  0.06433791  0.03013341     0.93300
C166        C  0.40611616  0.06083356  0.07012766     0.92400
C167        C  0.37928320  0.01825024  0.02982048     0.84600
C168        C  0.33441850  0.10755665  0.07069105     0.90800
O169        O  0.80505705  0.26285661  0.27074197    -0.72900
O170        O  0.84666255  0.31654261  0.30779161    -0.73900
O171        O  0.82633811  0.32517069  0.27144762    -0.62500
O172        O  0.82538365  0.25539793  0.30689689    -0.70900
O173        O  0.87105910  0.24045136  0.29668988    -0.70500
O174        O  0.87143548  0.31002177  0.26049499    -0.61700
O175        O  0.89215564  0.30212357  0.29692116    -0.74200
O176        O  0.85041003  0.24725072  0.26042736    -0.73000
Cu177      Cu  0.82426084  0.29062127  0.28943889     1.04600
Cu178      Cu  0.87283500  0.27451861  0.27816902     1.04300
C179        C  0.82100971  0.24544038  0.26030595     0.93300
C180        C  0.87607640  0.31697323  0.30859219     0.92400
C181        C  0.84916445  0.32926963  0.26069097     0.84600
C182        C  0.84825364  0.23698230  0.30757254     0.90800
O183        O  0.07709851  0.30889899  0.42384374    -0.72900
O184        O  0.02658066  0.35219048  0.46151254    -0.73900
O185        O  0.01646870  0.33153996  0.42521341    -0.62500
O186        O  0.08835923  0.33005191  0.46005740    -0.70900
O187        O  0.10436200  0.37428718  0.44837456    -0.70500
O188        O  0.03188078  0.37701948  0.41498005    -0.61700
O189        O  0.04333132  0.39718279  0.45116698    -0.74200
O190        O  0.09188503  0.35361806  0.41212200    -0.73000
Cu191      Cu  0.05164322  0.32913301  0.44312200     1.04600
Cu192      Cu  0.06850986  0.37711465  0.43139682     1.04300
C193        C  0.09126099  0.32418033  0.41153718     0.93300
C194        C  0.02659104  0.38157207  0.46218137     0.92400
C195        C  0.01318427  0.35429859  0.41431568     0.84600
C196        C  0.10811713  0.35197388  0.45946670     0.90800
O197        O  0.11607157  0.10488601  0.26237215    -0.72900
O198        O  0.11120515  0.17885541  0.29522418    -0.73900
O199        O  0.13236697  0.16816727  0.25926440    -0.62500
O200        O  0.09458925  0.11630669  0.29816058    -0.70900
O201        O  0.14069810  0.10547521  0.30949093    -0.70500
O202        O  0.17874891  0.15705442  0.26999535    -0.61700
O203        O  0.15763489  0.16776209  0.30589599    -0.74200
O204        O  0.16229555  0.09381475  0.27339530    -0.73000
Cu205      Cu  0.11199421  0.14231517  0.27829559     1.04600
Cu206      Cu  0.16151106  0.13056719  0.28997817     1.04300
C207        C  0.13976875  0.08742883  0.26281614     0.93300
C208        C  0.13363282  0.18476075  0.30600997     0.92400
C209        C  0.16159193  0.17160798  0.25875979     0.84600
C210        C  0.11131711  0.10360656  0.31033715     0.90800
O211        O  0.95129813  0.04234754  0.41306033    -0.72900
O212        O  0.87772018  0.04197392  0.44567641    -0.73900
O213        O  0.89063593  0.06559896  0.41032660    -0.62500
O214        O  0.93915373  0.01946373  0.44818916    -0.70900
O215        O  0.95425597  0.06398912  0.46006475    -0.70500
O216        O  0.90597820  0.10945323  0.42295044    -0.61700
O217        O  0.89289776  0.08607365  0.45801606    -0.74200
O218        O  0.96680430  0.08665048  0.42499490    -0.73000
Cu219      Cu  0.91404329  0.04077014  0.42894739     1.04600
Cu220      Cu  0.93039374  0.08804038  0.44198254     1.04300
C221        C  0.97077016  0.06442208  0.41377456     0.93300
C222        C  0.87342888  0.06398666  0.45696768     0.92400
C223        C  0.89113213  0.09506378  0.41055534     0.84600
C224        C  0.95547635  0.03467633  0.45963583     0.90800
O225        O  0.62817876  0.37484987  0.63870787    -0.72900
O226        O  0.70191614  0.34989719  0.66892732    -0.73900
O227        O  0.66823306  0.32352890  0.64009036    -0.62500
O228        O  0.66201342  0.40274280  0.66758503    -0.70900
O229        O  0.63071720  0.38052602  0.68759054    -0.70500
O230        O  0.63760229  0.30084911  0.66021542    -0.61700
O231        O  0.66998438  0.32882066  0.68907558    -0.74200
O232        O  0.59788963  0.35207720  0.65897156    -0.73000
Cu233      Cu  0.66620389  0.36372089  0.65316041     1.04600
Cu234      Cu  0.63298852  0.33994302  0.67467014     1.04300
C235        C  0.60127467  0.36656438  0.64397101     0.93300
C236        C  0.69729334  0.33437390  0.68351460     0.92400
C237        C  0.65424879  0.29953100  0.64582213     0.84600
C238        C  0.64520538  0.40428732  0.68187756     0.90800
O239        O  0.38175396  0.37405640  0.52145249    -0.72900
O240        O  0.35738753  0.31071557  0.55774858    -0.73900
O241        O  0.32838141  0.33691866  0.52672906    -0.62500
O242        O  0.40962333  0.34834419  0.55263585    -0.70900
O243        O  0.38824282  0.38449550  0.56984144    -0.70500
O244        O  0.30794564  0.37284988  0.54449993    -0.61700
O245        O  0.33687321  0.34643359  0.57564206    -0.74200
O246        O  0.36133700  0.41076339  0.53864420    -0.73000
Cu247      Cu  0.36983638  0.34125852  0.53897019     1.04600
Cu248      Cu  0.34767497  0.37991573  0.55766922     1.04300
C249        C  0.37687395  0.40253551  0.52460668     0.93300
C250        C  0.34436489  0.31838153  0.57268524     0.92400
C251        C  0.30516536  0.35298471  0.53174328     0.84600
C252        C  0.41154214  0.36815974  0.56553687     0.90800
O253        O  0.29451989  0.09033138  0.68161574    -0.72900
O254        O  0.36473161  0.06630227  0.64924187    -0.73900
O255        O  0.33214221  0.03712467  0.67821487    -0.62500
O256        O  0.32703666  0.11882359  0.65327027    -0.70900
O257        O  0.36023753  0.13862102  0.67313611    -0.70500
O258        O  0.36527601  0.05676375  0.69809623    -0.61700
O259        O  0.39772681  0.08598102  0.66918958    -0.74200
O260        O  0.32772172  0.10955176  0.70174384    -0.73000
Cu261      Cu  0.32850213  0.07729100  0.66492263     1.04600
Cu262      Cu  0.36392522  0.09826007  0.68626988     1.04300
C263        C  0.30006378  0.10477718  0.69644475     0.93300
C264        C  0.39234289  0.07309878  0.65381374     0.92400
C265        C  0.34931129  0.03403121  0.69227233     0.84600
C266        C  0.34264992  0.14168878  0.65928115     0.90800
O267        O  0.67642489  0.04463475  0.54580311    -0.72900
O268        O  0.59844126  0.04229904  0.57499393    -0.73900
O269        O  0.62130642  0.00847015  0.54517608    -0.62500
O270        O  0.65256895  0.07873658  0.57597857    -0.70900
O271        O  0.63096308  0.11131206  0.55656687    -0.70500
O272        O  0.60121373  0.04229025  0.52585062    -0.61700
O273        O  0.57698605  0.07509664  0.55570617    -0.74200
O274        O  0.65532392  0.07816055  0.52683014    -0.73000
Cu275      Cu  0.63809963  0.04233204  0.56112688     1.04600
Cu276      Cu  0.61550017  0.07783741  0.54056867     1.04300
C277        C  0.67832557  0.06181500  0.53168560     0.93300
C278        C  0.57524882  0.05825049  0.56995998     0.92400
C279        C  0.60554525  0.01455959  0.53089884     0.84600
C280        C  0.64595469  0.10626595  0.57123360     0.90800
O281        O  0.15937150  0.33244565  0.77586203    -0.72900
O282        O  0.16169699  0.25980674  0.80969161    -0.73900
O283        O  0.18279447  0.27100203  0.77404909    -0.62500
O284        O  0.13829738  0.32012209  0.81193171    -0.70900
O285        O  0.09364833  0.30485923  0.80019573    -0.70500
O286        O  0.13815788  0.25432293  0.76310155    -0.61700
O287        O  0.11655482  0.24439998  0.79874636    -0.74200
O288        O  0.11519117  0.31591847  0.76426570    -0.73000
Cu289      Cu  0.16213723  0.29657353  0.79314846     1.04600
Cu290      Cu  0.11438589  0.27945126  0.78108238     1.04300
C291        C  0.13681251  0.33594468  0.76481518     0.93300
C292        C  0.13907107  0.24090384  0.80978898     0.92400
C293        C  0.16757247  0.25346042  0.76328420     0.84600
C294        C  0.10887109  0.31931245  0.81244675     0.90800
O295        O  0.93641784  0.40271400  0.95165038    -0.72900
O296        O  0.88685991  0.36518960  0.91082923    -0.73900
O297        O  0.87347993  0.38379141  0.94754467    -0.62500
O298        O  0.94825281  0.38449776  0.91549308    -0.70900
O299        O  0.96037463  0.33784236  0.92531067    -0.70500
O300        O  0.88590111  0.33749185  0.95774726    -0.61700
O301        O  0.89884236  0.31893488  0.92139262    -0.74200
O302        O  0.94876096  0.35610921  0.96141604    -0.73000
Cu303      Cu  0.91060956  0.38572861  0.93116618     1.04600
Cu304      Cu  0.92370224  0.33604492  0.94190927     1.04300
C305        C  0.95194094  0.38528664  0.96228811     0.93300
C306        C  0.88640078  0.33585981  0.90922215     0.92400
C307        C  0.86762404  0.36054691  0.95766336     0.84600
C308        C  0.96596642  0.36107737  0.91512421     0.90800
O309        O  0.82362231  0.10795301  0.76959610    -0.72900
O310        O  0.82855270  0.18189759  0.80227376    -0.73900
O311        O  0.80654444  0.17106399  0.76660236    -0.62500
O312        O  0.84592904  0.11956917  0.80563622    -0.70900
O313        O  0.89182357  0.12967351  0.79365584    -0.70500
O314        O  0.85257542  0.18355131  0.75575861    -0.61700
O315        O  0.87514588  0.19274249  0.79165299    -0.74200
O316        O  0.86896714  0.12002777  0.75761677    -0.73000
Cu317      Cu  0.82455731  0.14462649  0.78634017     1.04600
Cu318      Cu  0.87372636  0.15677847  0.77421954     1.04300
C319        C  0.84540095  0.10229549  0.75832711     0.93300
C320        C  0.85267439  0.19886366  0.80235861     0.92400
C321        C  0.82326997  0.18637100  0.75543245     0.84600
C322        C  0.87528236  0.11703180  0.80600947     0.90800
O323        O  0.01729884  0.09402042  0.92276471    -0.72900
O324        O  0.08720755  0.08998705  0.95883189    -0.73900
O325        O  0.07928532  0.11455256  0.92358056    -0.62500
O326        O  0.02419623  0.06936991  0.95822296    -0.70900
O327        O  0.03947313  0.02506002  0.94629525    -0.70500
O328        O  0.09405014  0.07060173  0.91098501    -0.61700
O329        O  0.10228164  0.04606148  0.94635795    -0.74200
O330        O  0.03201997  0.04957529  0.91079433    -0.73000
Cu331      Cu  0.05151424  0.09343586  0.94135489     1.04600
Cu332      Cu  0.06750643  0.04621368  0.92829354     1.04300
C333        C  0.01370488  0.07259237  0.91094653     0.93300
C334        C  0.10657447  0.06789340  0.95781895     0.92400
C335        C  0.09498843  0.10001048  0.91160383     0.84600
C336        C  0.02226296  0.04005281  0.95735901     0.90800
O337        O  0.38608066  0.62228126  0.29418223    -0.72900
O338        O  0.33772994  0.67258034  0.25873434    -0.73900
O339        O  0.36571818  0.68372703  0.29282454    -0.62500
O340        O  0.35788852  0.61013567  0.25989058    -0.70900
O341        O  0.31487234  0.59661899  0.27408914    -0.70500
O342        O  0.32287541  0.66952751  0.30701427    -0.61700
O343        O  0.29482759  0.65914459  0.27325440    -0.74200
O344        O  0.34321275  0.60824502  0.30839701    -0.73000
Cu345      Cu  0.36333621  0.64749406  0.27582092     1.04600
Cu346      Cu  0.31740691  0.63277011  0.29106013     1.04300
C347        C  0.37260117  0.60834213  0.30731804     0.93300
C348        C  0.30866414  0.67495548  0.26103228     0.92400
C349        C  0.34550805  0.68812707  0.30526130     0.84600
C350        C  0.33527215  0.59147115  0.26188970     0.90800
O351        O  0.59656429  0.56676285  0.40880303    -0.72900
O352        O  0.54556172  0.51892909  0.44503800    -0.73900
O353        O  0.53636264  0.54198113  0.40950738    -0.62500
O354        O  0.60689539  0.54312849  0.44451213    -0.70900
O355        O  0.58952456  0.58625600  0.45691558    -0.70500
O356        O  0.51922225  0.58603206  0.42088041    -0.61700
O357        O  0.52763031  0.56283584  0.45631852    -0.74200
O358        O  0.57988732  0.61015339  0.42129572    -0.73000
Cu359      Cu  0.57205644  0.54115604  0.42665486     1.04600
Cu360      Cu  0.55358855  0.58781040  0.43935439     1.04300
C361        C  0.59556361  0.59620679  0.40907216     0.93300
C362        C  0.52744063  0.53345789  0.45579453     0.92400
C363        C  0.51678121  0.56385984  0.40943462     0.84600
C364        C  0.60975715  0.56487879  0.45615749     0.90800
O365        O  0.44022843  0.90315737  0.44769912    -0.72900
O366        O  0.39405148  0.85635010  0.40925368    -0.73900
O367        O  0.37955755  0.87887416  0.44455761    -0.62500
O368        O  0.45370024  0.88087190  0.41246264    -0.70900
O369        O  0.46993171  0.83698686  0.42442046    -0.70500
O370        O  0.39524999  0.83490786  0.45668708    -0.61700
O371        O  0.41019811  0.81270790  0.42157515    -0.74200
O372        O  0.45599200  0.85908759  0.45965744    -0.73000
Cu373      Cu  0.41622125  0.88139932  0.42818063     1.04600
Cu374      Cu  0.43330102  0.83445449  0.44110543     1.04300
C375        C  0.45634644  0.88846945  0.45938528     0.93300
C376        C  0.39576341  0.82696471  0.40901577     0.92400
C377        C  0.37527876  0.85639616  0.45549323     0.78200
C378        C  0.47326723  0.85897315  0.41300361     0.90800
O379        O  0.66226017  0.75825567  0.30512412    -0.72900
O380        O  0.65880240  0.82809953  0.26961964    -0.73900
O381        O  0.63830507  0.81807842  0.30591736    -0.62500
O382        O  0.68298047  0.76672044  0.26903496    -0.70900
O383        O  0.63840507  0.75001482  0.25781187    -0.70500
O384        O  0.59388324  0.80075047  0.29491495    -0.61700
O385        O  0.61425482  0.81118488  0.25868608    -0.74200
O386        O  0.61795296  0.74072829  0.29417038    -0.73000
Cu387      Cu  0.66220657  0.79350830  0.28762208     1.04600
Cu388      Cu  0.61462866  0.77513486  0.27590681     1.04300
C389        C  0.64017954  0.73875858  0.30558613     0.93300
C390        C  0.63572503  0.83141058  0.25895976     0.92400
C391        C  0.60891908  0.81644051  0.30669908     0.84600
C392        C  0.66781687  0.74927899  0.25818340     0.90800
O393        O  0.11422245  0.87143287  0.19095889    -0.72900
O394        O  0.11283425  0.79404130  0.16059206    -0.73900
O395        O  0.14340224  0.81346438  0.19232751    -0.62500
O396        O  0.08271489  0.85175487  0.15915230    -0.70900
O397        O  0.12027257  0.87009462  0.14171338    -0.70500
O398        O  0.18214748  0.83183343  0.17584855    -0.61700
O399        O  0.15118590  0.81290226  0.14402909    -0.74200
O400        O  0.15205944  0.88980822  0.17381212    -0.73000
Cu401      Cu  0.11194031  0.83220001  0.17635349     1.04600
Cu402      Cu  0.15271241  0.85196830  0.15827136     1.04300
C403        C  0.13365887  0.89275686  0.18730953     0.93300
C404        C  0.13242194  0.79103930  0.14765706     0.92400
C405        C  0.17222132  0.81553640  0.18915123     0.84600
C406        C  0.09152318  0.86634932  0.14498563     0.90800
O407        O  0.85705358  0.81102210  0.05519866    -0.72900
O408        O  0.87747886  0.87850416  0.02060023    -0.73900
O409        O  0.90808991  0.85118032  0.05031546    -0.62500
O410        O  0.82569156  0.83910534  0.02570196    -0.70900
O411        O  0.80548097  0.87321810  0.04470430    -0.70500
O412        O  0.88645994  0.88473255  0.06916424    -0.61700
O413        O  0.85746184  0.91305468  0.03947901    -0.74200
O414        O  0.83599616  0.84417217  0.07451583    -0.73000
Cu415      Cu  0.86766750  0.84373806  0.03728730     1.04600
Cu416      Cu  0.84543820  0.87992149  0.05759447     1.04300
C417        C  0.84373529  0.81658664  0.07036691     0.93300
C418        C  0.87206325  0.90650085  0.02478592     0.92400
C419        C  0.91025385  0.87042206  0.06351868     0.84600
C420        C  0.80246377  0.85455472  0.03134918     0.90800
O421        O  0.17657996  0.54258950  0.04363801    -0.72900
O422        O  0.09787518  0.53509700  0.07157287    -0.73900
O423        O  0.12544658  0.50111042  0.04321711    -0.62500
O424        O  0.14761660  0.57649371  0.07245072    -0.70900
O425        O  0.12431169  0.60574080  0.05189154    -0.70500
O426        O  0.10282241  0.53127410  0.02277304    -0.61700
O427        O  0.07419430  0.56447786  0.05129201    -0.74200
O428        O  0.15309893  0.57206766  0.02324100    -0.73000
Cu429      Cu  0.13791007  0.53781861  0.05838512     1.04600
Cu430      Cu  0.11295246  0.56943676  0.03656157     1.04300
C431        C  0.17714570  0.55800534  0.02879965     0.93300
C432        C  0.07359123  0.54869429  0.06600620     0.92400
C433        C  0.10985214  0.50450250  0.02856586     0.84600
C434        C  0.13827845  0.60291030  0.06712668     0.90800
O435        O  0.86234250  0.54976313  0.19377244    -0.72900
O436        O  0.85731022  0.62928457  0.16612949    -0.73900
O437        O  0.82420181  0.60341131  0.19519958    -0.62500
O438        O  0.89508047  0.57673586  0.16447805    -0.70900
O439        O  0.86300504  0.55512078  0.14470643    -0.70500
O440        O  0.79143516  0.58200965  0.17554626    -0.61700
O441        O  0.82479831  0.60773157  0.14654665    -0.74200
O442        O  0.83001429  0.52806669  0.17419919    -0.73000
Cu443      Cu  0.86081085  0.59031402  0.18065569     1.04600
Cu444      Cu  0.82615465  0.56722748  0.15965040     1.04300
C445        C  0.84750669  0.52607971  0.18820758     0.93300
C446        C  0.84016955  0.63117451  0.15199881     0.92400
C447        C  0.79676159  0.59873109  0.18955015     0.84600
C448        C  0.89038116  0.56266327  0.14942513     0.90800
C449        C  0.97102462  0.56099636  0.12941025    -0.27600
C450        C  0.96522082  0.55053681  0.11163685     0.02000
C451        C  0.93499962  0.54240080  0.10658995     0.30100
C452        C  0.91095809  0.54533564  0.11925330    -0.19400
C453        C  0.91660368  0.55655194  0.13698367    -0.28800
C454        C  0.94718588  0.56388165  0.14206246     0.44100
C455        C  0.99138973  0.54778344  0.09884200     0.05300
O456        O  0.92898991  0.53061343  0.08955771    -0.57300
H457        H  0.88777564  0.53930984  0.11502686     0.18300
O458        O  0.95412477  0.57453764  0.15921607    -0.64000
H459        H  0.99425066  0.56726027  0.13346754     0.16700
C460        C  0.99206614  0.56393669  0.08220461     0.29000
C461        C  0.01855906  0.56313710  0.07130736    -0.24900
C462        C  0.04488324  0.54680597  0.07692199    -0.24200
C463        C  0.04374829  0.53009645  0.09345182     0.40400
C464        C  0.01721501  0.53075629  0.10419632    -0.26700
O465        O  0.96751396  0.58158680  0.07683006    -0.58500
H466        H  0.01876825  0.57618899  0.05871801     0.16000
O467        O  0.06875075  0.51393932  0.09967741    -0.60000
H468        H  0.01701013  0.51835006  0.11702353     0.14500
H469        H  0.95892621  0.55586855  0.16645019     0.46300
H470        H  0.97086266  0.60196716  0.08264008     0.41700
H471        H  0.06577528  0.49266019  0.09504601     0.45200
H472        H  0.91671775  0.54657384  0.08321373     0.36700
C473        C  0.85806869  0.71094406  0.13320159    -0.27600
C474        C  0.83364453  0.71497261  0.12090440     0.02000
C475        C  0.81076200  0.69206156  0.11950368     0.30100
C476        C  0.81301750  0.66514520  0.12985029    -0.19400
C477        C  0.83787071  0.66059276  0.14185413    -0.28800
C478        C  0.86026738  0.68409178  0.14369373     0.44100
C479        C  0.83391702  0.74148293  0.10823900     0.05300
O480        O  0.78643610  0.69548525  0.10772480    -0.57300
H481        H  0.79529842  0.64768138  0.12835758     0.18300
O482        O  0.88533420  0.68038108  0.15488126    -0.64000
H483        H  0.87613303  0.72816113  0.13417040     0.16700
C484        C  0.83371061  0.77211072  0.11456761     0.29000
C485        C  0.83552237  0.79654804  0.10207658    -0.24900
C486        C  0.83833142  0.79079580  0.08324412    -0.24200
C487        C  0.83806100  0.75997627  0.07701360     0.40400
C488        C  0.83565789  0.73576254  0.08945633    -0.26700
O489        O  0.83124323  0.77832171  0.13287432    -0.58500
H490        H  0.83572001  0.81997530  0.10719275     0.16000
O491        O  0.83974856  0.75317922  0.05874344    -0.60000
H492        H  0.83592268  0.71227540  0.08441625     0.14500
H493        H  0.87983390  0.69105614  0.16640202     0.46300
H494        H  0.85251700  0.78314055  0.13696506     0.41700
H495        H  0.86149078  0.74711904  0.05657215     0.45200
H496        H  0.77110792  0.70798274  0.11450386     0.36700
C497        C  0.01390776  0.88390253  0.12432527    -0.27600
C498        C  0.02112413  0.88442372  0.10568600     0.02000
C499        C  0.05220074  0.88362183  0.10018984     0.30100
C500        C  0.07547732  0.88012313  0.11331783    -0.19400
C501        C  0.06796984  0.87701996  0.13189558    -0.28800
C502        C  0.03696210  0.88037222  0.13738698     0.44100
C503        C  0.99548515  0.88348181  0.09242884     0.05300
O504        O  0.05988526  0.88621245  0.08207913    -0.57300
H505        H  0.09919807  0.87811746  0.10883405     0.18300
O506        O  0.02867729  0.87884103  0.15543824    -0.64000
H507        H  0.99006930  0.88483869  0.12874928     0.16700
C508        C  0.99165329  0.85816151  0.08058013     0.29000
C509        C  0.96433984  0.85484407  0.07058820    -0.24900
C510        C  0.94024325  0.87614620  0.07256587    -0.24200
C511        C  0.94472707  0.90216666  0.08390247     0.40400
C512        C  0.97220279  0.90566691  0.09362211    -0.26700
O513        O  0.01366488  0.83560667  0.07945838    -0.58500
H514        H  0.96147592  0.83474646  0.06196164     0.16000
O515        O  0.92242189  0.92433938  0.08565818    -0.60000
H516        H  0.97488121  0.92522556  0.10270634     0.14500
H517        H  0.03158349  0.90003612  0.16021857     0.46300
H518        H  0.00859103  0.82089696  0.08935787     0.41700
H519        H  0.91175037  0.91962536  0.09730750     0.45200
H520        H  0.06822279  0.86582693  0.07849566     0.36700
C521        C  0.13983638  0.68547194  0.08403417    -0.27600
C522        C  0.14056072  0.68122993  0.10300520     0.02000
C523        C  0.14241965  0.65117124  0.11007073     0.30100
C524        C  0.14310059  0.62588974  0.09818822    -0.19400
C525        C  0.14167660  0.63007902  0.07917419    -0.28800
C526        C  0.14027324  0.66026509  0.07214718     0.44100
C527        C  0.13921392  0.70847713  0.11515179     0.05300
O528        O  0.14322830  0.64624367  0.12855243    -0.57300
H529        H  0.14372858  0.60290230  0.10390995     0.18300
O530        O  0.13965883  0.66544073  0.05368012    -0.64000
H531        H  0.13827075  0.70846706  0.07839158     0.16700
C532        C  0.16057815  0.73261707  0.11314343     0.29000
C533        C  0.15801475  0.75906362  0.12389146    -0.24900
C534        C  0.13419965  0.76218432  0.13680612    -0.24200
C535        C  0.11320654  0.73755407  0.13914358     0.40400
C536        C  0.11574178  0.71106050  0.12827067    -0.26700
O537        O  0.18464057  0.73012064  0.10105676    -0.58500
H538        H  0.17490877  0.77721221  0.12202733     0.16000
O539        O  0.08974055  0.73929643  0.15165435    -0.60000
H540        H  0.09900076  0.69268643  0.12987117     0.14500
H541        H  0.11779793  0.66992839  0.05076394     0.46300
H542        H  0.17948587  0.74413352  0.09083446     0.41700
H543        H  0.09789572  0.72930533  0.16281309     0.45200
H544        H  0.16531857  0.64764731  0.13192603     0.36700
C545        C  0.72359182  0.68708170  0.24401295    -0.27600
C546        C  0.71418698  0.68089097  0.22607391     0.02000
C547        C  0.68937514  0.69752056  0.21856456     0.30100
C548        C  0.67435919  0.71999463  0.22907777    -0.19400
C549        C  0.68435005  0.72662627  0.24687820    -0.28800
C550        C  0.70891028  0.70968831  0.25439254     0.44100
C551        C  0.73167925  0.65799850  0.21527674     0.05300
O552        O  0.67901598  0.69111766  0.20126237    -0.57300
H553        H  0.65503891  0.73237313  0.22328416     0.18300
O554        O  0.71823895  0.71447786  0.27206865    -0.64000
H555        H  0.74264579  0.67448235  0.24995175     0.16700
C556        C  0.74714268  0.66694035  0.19923695     0.29000
C557        C  0.76676083  0.64626413  0.19044648    -0.24900
C558        C  0.77185701  0.61683666  0.19763823    -0.24200
C559        C  0.75616500  0.60749738  0.21343822     0.40400
C560        C  0.73595343  0.62801460  0.22211395    -0.26700
O561        O  0.74473410  0.69640316  0.19266026    -0.58500
H562        H  0.77933884  0.65380296  0.17845132     0.16000
O563        O  0.76091508  0.57878243  0.22065989    -0.60000
H564        H  0.72439668  0.62093558  0.23453926     0.14500
H565        H  0.70447075  0.70137410  0.27960696     0.46300
H566        H  0.76073990  0.70839694  0.19924639     0.41700
H567        H  0.77828028  0.58134533  0.22934359     0.45200
H568        H  0.68391148  0.70966075  0.19391218     0.36700
C569        C  0.54190161  0.83256500  0.38489637    -0.27600
C570        C  0.54086584  0.85352108  0.37034689     0.02000
C571        C  0.51985316  0.87810469  0.37099122     0.30100
C572        C  0.49904328  0.88042238  0.38545333    -0.19400
C573        C  0.49878038  0.85848293  0.39956085    -0.28800
C574        C  0.52128533  0.83502433  0.39951049     0.44100
C575        C  0.55938731  0.84769989  0.35375299     0.05300
O576        O  0.51863592  0.89930026  0.35714855    -0.57300
H577        H  0.48227802  0.89886972  0.38518712     0.18300
O578        O  0.52247540  0.81346745  0.41315161    -0.64000
H579        H  0.55777749  0.81335070  0.38453694     0.16700
C580        C  0.59142135  0.84292198  0.35464550     0.29000
C581        C  0.60771828  0.83483807  0.33885490    -0.24900
C582        C  0.59230695  0.83064045  0.32214600    -0.24200
C583        C  0.56038809  0.83642665  0.32119560     0.40400
C584        C  0.54426478  0.84499110  0.33689629    -0.26700
O585        O  0.60693304  0.84621171  0.37086183    -0.58500
H586        H  0.63222187  0.83036448  0.33992312     0.16000
O587        O  0.54468584  0.83366540  0.30501356    -0.60000
H588        H  0.51956094  0.84839062  0.33601558     0.14500
H589        H  0.53599624  0.82263422  0.42264009     0.46300
H590        H  0.61214589  0.82498885  0.37475571     0.41700
H591        H  0.53378694  0.81358362  0.30573186     0.45200
H592        H  0.53377593  0.91546457  0.36057875     0.36700
C593        C  0.62757503  0.62150719  0.36320813    -0.27600
C594        C  0.63077926  0.65338749  0.36593575     0.02000
C595        C  0.62558164  0.66565844  0.38347947     0.30100
C596        C  0.61591341  0.64632756  0.39766592    -0.19400
C597        C  0.61107610  0.61467223  0.39471998    -0.28800
C598        C  0.61764803  0.60221018  0.37734915     0.44100
C599        C  0.63547767  0.67380280  0.34992190     0.05300
O600        O  0.62696236  0.69684869  0.38646543    -0.57300
H601        H  0.61084138  0.65650003  0.41084230     0.18300
O602        O  0.61271798  0.57159960  0.37367529    -0.64000
H603        H  0.63140560  0.61172809  0.34977943     0.16700
C604        C  0.65888747  0.69632254  0.34944069     0.29000
C605        C  0.66092344  0.71650242  0.33454441    -0.24900
C606        C  0.63973283  0.71477729  0.32001345    -0.24200
C607        C  0.61722772  0.69124452  0.32020386     0.40400
C608        C  0.61518754  0.67121579  0.33506927    -0.26700
O609        O  0.68031690  0.69816151  0.36319949    -0.58500
H610        H  0.67875297  0.73403057  0.33464260     0.16000
O611        O  0.59653037  0.68796159  0.30618241    -0.60000
H612        H  0.59707723  0.65396691  0.33519034     0.14500
H613        H  0.59122790  0.57035880  0.36907409     0.46300
H614        H  0.67776895  0.71889988  0.36870051     0.41700
H615        H  0.60679002  0.67416219  0.29726578     0.45200
H616        H  0.64438737  0.70000774  0.39504367     0.36700
C617        C  0.20409517  0.75412917  0.22032867    -0.27600
C618        C  0.23544977  0.76179103  0.22087099     0.02000
C619        C  0.24613531  0.78760579  0.21110859     0.30100
C620        C  0.22536473  0.80528756  0.20092007    -0.19400
C621        C  0.19382294  0.79772510  0.20054738    -0.28800
C622        C  0.18330888  0.77189133  0.21047873     0.44100
C623        C  0.25633039  0.74198254  0.23154796     0.05300
O624        O  0.27671059  0.79573228  0.21145382    -0.57300
H625        H  0.23392271  0.82496135  0.19336080     0.18300
O626        O  0.15300936  0.76273518  0.20993706    -0.64000
H627        H  0.19566877  0.73390502  0.22743443     0.16700
C628        C  0.24913093  0.73466980  0.24976837     0.29000
C629        C  0.26610095  0.71237869  0.25895890    -0.24900
C630        C  0.29099010  0.69761230  0.25043977    -0.24200
C631        C  0.29923781  0.70597872  0.23250784     0.40400
C632        C  0.28175731  0.72792763  0.22312290    -0.26700
O633        O  0.22520050  0.74892230  0.25863488    -0.58500
H634        H  0.26001254  0.70694738  0.27294062     0.16000
O635        O  0.32377886  0.69237177  0.22389804    -0.60000
H636        H  0.28742971  0.73321448  0.20906721     0.14500
H637        H  0.14367242  0.77097777  0.22130073     0.46300
H638        H  0.23394965  0.76850292  0.26333281     0.41700
H639        H  0.31519975  0.67362202  0.21802819     0.45200
H640        H  0.27908761  0.80885697  0.22245963     0.36700
C641        C  0.47028915  0.54727282  0.36657140    -0.27600
C642        C  0.44700269  0.56937678  0.36798294     0.02000
C643        C  0.44502099  0.58779478  0.38372285     0.30100
C644        C  0.46719305  0.58495734  0.39748515    -0.19400
C645        C  0.49164926  0.56392966  0.39571949    -0.28800
C646        C  0.49254946  0.54441909  0.38023911     0.44100
C647        C  0.42802309  0.57629199  0.35185973     0.05300
O648        O  0.42232148  0.60957582  0.38538245    -0.57300
H649        H  0.46575168  0.59995663  0.40928554     0.18300
O650        O  0.51570989  0.52331608  0.37789625    -0.64000
H651        H  0.47201696  0.53313719  0.35440577     0.16700
C652        C  0.44156778  0.59116160  0.33685748     0.29000
C653        C  0.42341619  0.60001062  0.32208769    -0.24900
C654        C  0.39148974  0.59428778  0.32194205    -0.24200
C655        C  0.37814047  0.57817056  0.33675801     0.40400
C656        C  0.39643132  0.56951385  0.35165719    -0.26700
O657        O  0.47226264  0.59890983  0.33705956    -0.58500
H658        H  0.43433112  0.61253598  0.31105013     0.16000
O659        O  0.34717541  0.57171363  0.33717911    -0.60000
H660        H  0.38590025  0.55794322  0.36318579     0.14500
H661        H  0.53175645  0.53416367  0.37068724     0.46300
H662        H  0.48283325  0.58188936  0.33055098     0.41700
H663        H  0.34498659  0.55160156  0.33086813     0.45200
H664        H  0.43096493  0.62845476  0.37974281     0.36700
C665        C  0.33077325  0.74348401  0.34436306    -0.27600
C666        C  0.35930137  0.75834044  0.34557016     0.02000
C667        C  0.38223797  0.75244231  0.33251145     0.30100
C668        C  0.37695875  0.73049955  0.31887505    -0.19400
C669        C  0.34891629  0.71415604  0.31816595    -0.28800
C670        C  0.32538623  0.72151760  0.33080041     0.44100
C671        C  0.36634019  0.77643021  0.36194910     0.05300
O672        O  0.41059313  0.76636874  0.33377935    -0.57300
H673        H  0.39539373  0.72532505  0.30937772     0.18300
O674        O  0.29721830  0.70708419  0.33026210    -0.64000
H675        H  0.31306512  0.74802235  0.35445463     0.16700
C676        C  0.36572596  0.80871086  0.36181945     0.29000
C677        C  0.37370673  0.82503920  0.37760924    -0.24900
C678        C  0.38279711  0.80937201  0.39352781    -0.24200
C679        C  0.38228800  0.77681591  0.39365073     0.40400
C680        C  0.37415580  0.76069459  0.37790907    -0.26700
O681        O  0.35739876  0.82438286  0.34635669    -0.58500
H682        H  0.37385586  0.84997727  0.37714641     0.16000
O683        O  0.39062906  0.76040108  0.40884380    -0.60000
H684        H  0.37448506  0.73572526  0.37803771     0.14500
H685        H  0.29821000  0.69087803  0.33977176     0.46300
H686        H  0.37708921  0.82973479  0.34023429     0.41700
H687        H  0.37119824  0.75709294  0.41570138     0.45200
H688        H  0.40937110  0.78459007  0.32568163     0.36700
C689        C  0.91400844  0.94548851  0.98595273    -0.27600
C690        C  0.92608931  0.97158290  0.99480548     0.02000
C691        C  0.91525835  0.97894960  0.01245215     0.30100
C692        C  0.89493763  0.95892998  0.02148185    -0.19400
C693        C  0.88559436  0.93113437  0.01330975    -0.28800
C694        C  0.89422595  0.92522560  0.99507052     0.44100
C695        C  0.95142733  0.98943692  0.98598725     0.05300
O696        O  0.92583979  0.00458070  0.02147918    -0.57300
H697        H  0.88851193  0.96402252  0.03545600     0.18300
O698        O  0.88488935  0.89883373  0.98633003    -0.64000
H699        H  0.92095919  0.94006739  0.97211517     0.16700
C700        C  0.97729106  0.97424724  0.97853403     0.29000
C701        C  0.00058744  0.99112134  0.96984242    -0.24900
C702        C  0.99896210  0.02332737  0.96849003    -0.24200
C703        C  0.97369769  0.03865555  0.97663009     0.40400
C704        C  0.95009576  0.02170262  0.98504651    -0.26700
O705        O  0.98050584  0.94292798  0.98020509    -0.58500
H706        H  0.01992059  0.97879050  0.96400118     0.16000
O707        O  0.97101000  0.07008440  0.97575885    -0.60000
H708        H  0.93039509  0.03385637  0.99056870     0.14500
H709        H  0.86422550  0.90364159  0.98131992     0.46300
H710        H  0.97760010  0.93451463  0.96772752     0.41700
H711        H  0.98031325  0.07782915  0.98725867     0.45200
H712        H  0.94490148  0.99787961  0.02777342     0.36700
C713        C  0.95006528  0.10377397  0.88031262    -0.27600
C714        C  0.94455974  0.07864207  0.86868148     0.02000
C715        C  0.96055304  0.05094808  0.87169666     0.30100
C716        C  0.98243794  0.04907972  0.88572759    -0.19400
C717        C  0.98868668  0.07455360  0.89708897    -0.28800
C718        C  0.97169045  0.10190785  0.89444198     0.44100
C719        C  0.92415796  0.08281013  0.85259599     0.05300
O720        O  0.95534893  0.02573967  0.86080724    -0.57300
H721        H  0.99483351  0.02767115  0.88753743     0.18300
O722        O  0.97706852  0.12756863  0.90492143    -0.64000
H723        H  0.93830575  0.12542041  0.87802688     0.16700
C724        C  0.89423406  0.09497442  0.85451518     0.29000
C725        C  0.87757715  0.10401835  0.83906033    -0.24900
C726        C  0.89046419  0.10139880  0.82152587    -0.24200
C727        C  0.91947971  0.08723206  0.81953080     0.40400
C728        C  0.93599344  0.07787903  0.83499135    -0.26700
O729        O  0.88165219  0.09945903  0.87149122    -0.58500
H730        H  0.85528323  0.11480655  0.84090400     0.16000
O731        O  0.93202471  0.08275009  0.80254064    -0.60000
H732        H  0.95888218  0.06837100  0.83323732     0.14500
H733        H  0.96133410  0.12678938  0.91473217     0.46300
H734        H  0.87225481  0.07941444  0.87480488     0.41700
H735        H  0.94764718  0.09930784  0.80109737     0.45200
H736        H  0.93806688  0.01452468  0.86670337     0.36700
C737        C  0.02138180  0.39353263  0.99364230    -0.27600
C738        C  0.02704185  0.42523843  0.99241420     0.02000
C739        C  0.00602306  0.44400706  0.98291590     0.30100
C740        C  0.98074118  0.43085726  0.97403862    -0.19400
C741        C  0.97562896  0.39890577  0.97451336    -0.28800
C742        C  0.99585217  0.38031026  0.98489842     0.44100
C743        C  0.05439846  0.43913466  0.00129134     0.05300
O744        O  0.01023061  0.47530409  0.98200061    -0.57300
H745        H  0.96561839  0.44575908  0.96630259     0.18300
O746        O  0.99180105  0.34903035  0.98597696    -0.64000
H747        H  0.03718584  0.37887257  0.00106331     0.16700
C748        C  0.05899292  0.43657968  0.02026332     0.29000
C749        C  0.08053206  0.45566745  0.02895843    -0.24900
C750        C  0.09705556  0.47770991  0.01892714    -0.24200
C751        C  0.09498799  0.47775939  0.99977157     0.40400
C752        C  0.07386069  0.45839526  0.99106010    -0.26700
O753        O  0.04073662  0.41755353  0.03060996    -0.58500
H754        H  0.08192934  0.45541906  0.04372822     0.16000
O755        O  0.11170526  0.49838344  0.98959033    -0.60000
H756        H  0.07114458  0.45995056  0.97638577     0.14500
H757        H  0.97869148  0.34577818  0.99690186     0.46300
H758        H  0.02247525  0.43009289  0.03389708     0.41700
H759        H  0.13218039  0.48866880  0.98792538     0.45200
H760        H  0.00115552  0.48353343  0.99342851     0.36700
C761        C  0.86586633  0.31958537  0.85970775    -0.27600
C762        C  0.86086190  0.28770152  0.86040390     0.02000
C763        C  0.86097495  0.27259624  0.87733385     0.30100
C764        C  0.86729730  0.28909635  0.89326847    -0.19400
C765        C  0.87361633  0.32083997  0.89269110    -0.28800
C766        C  0.87213643  0.33625856  0.87572453     0.44100
C767        C  0.85762236  0.26947679  0.84350166     0.05300
O768        O  0.85716224  0.24124706  0.87824349    -0.57300
H769        H  0.86850992  0.27665242  0.90605495     0.18300
O770        O  0.87828655  0.36719333  0.87447065    -0.64000
H771        H  0.86583536  0.33135952  0.84667823     0.16700
C772        C  0.82928809  0.25579020  0.83898923     0.29000
C773        C  0.82780008  0.23394835  0.82495832    -0.24900
C774        C  0.85448432  0.22511781  0.81534999    -0.24200
C775        C  0.88260073  0.24031764  0.81924762     0.40400
C776        C  0.88397111  0.26224712  0.83328886    -0.26700
O777        O  0.80306109  0.26330801  0.84847049    -0.58500
H778        H  0.80578234  0.22318358  0.82202987     0.16000
O779        O  0.90927455  0.23257733  0.81030652    -0.60000
H780        H  0.90598430  0.27253379  0.83681283     0.14500
H781        H  0.90069840  0.36864725  0.87187997     0.46300
H782        H  0.79911456  0.24565315  0.85672257     0.41700
H783        H  0.91114393  0.24767784  0.80022539     0.45200
H784        H  0.83599766  0.23807887  0.88301167     0.36700
C785        C  0.02258525  0.38285947  0.87772493    -0.27600
C786        C  0.03652773  0.35437996  0.87436705     0.02000
C787        C  0.02942481  0.32901888  0.88549123     0.30100
C788        C  0.00755021  0.33199369  0.89935048    -0.19400
C789        C  0.99222337  0.36008410  0.90222861    -0.28800
C790        C  0.00076394  0.38597318  0.89165802     0.44100
C791        C  0.05622562  0.35028799  0.85821489     0.05300
O792        O  0.04275806  0.30086694  0.88237737    -0.57300
H793        H  0.00164074  0.31180705  0.90730269     0.18300
O794        O  0.98725573  0.41414488  0.89434218    -0.64000
H795        H  0.02810563  0.40251247  0.86921645     0.16700
C796        C  0.04299763  0.34960707  0.84071819     0.29000
C797        C  0.06085773  0.34102253  0.82569914    -0.24900
C798        C  0.09210475  0.33341317  0.82785344    -0.24200
C799        C  0.10569884  0.33576080  0.84532189     0.40400
C800        C  0.08762677  0.34389720  0.86038021    -0.26700
O801        O  0.01208730  0.35498668  0.83839858    -0.58500
H802        H  0.04994091  0.33924610  0.81243497     0.16000
O803        O  0.13586597  0.32762838  0.84812215    -0.60000
H804        H  0.09784746  0.34413117  0.87387746     0.14500
H805        H  0.00007138  0.42445021  0.90377291     0.46300
H806        H  0.01052757  0.37724242  0.83558832     0.41700
H807        H  0.14759745  0.34725818  0.84767365     0.45200
H808        H  0.02906872  0.29041706  0.87344962     0.36700
C809        C  0.10947121  0.18145154  0.84322120    -0.27600
C810        C  0.13673663  0.17247258  0.85189464     0.02000
C811        C  0.16516882  0.18399097  0.84575494     0.30100
C812        C  0.16588719  0.20546738  0.83148542    -0.19400
C813        C  0.13836299  0.21559387  0.82326726    -0.28800
C814        C  0.11003831  0.20284825  0.82906052     0.44100
C815        C  0.13407727  0.15399600  0.86862247     0.05300
O816        O  0.19215388  0.17503956  0.85390747    -0.57300
H817        H  0.18790963  0.21476183  0.82715026     0.18300
O818        O  0.08257858  0.21219762  0.82163756    -0.64000
H819        H  0.08745205  0.17276091  0.84801143     0.16700
C820        C  0.12353398  0.16816302  0.88467893     0.29000
C821        C  0.11297522  0.15017260  0.89913666    -0.24900
C822        C  0.11273423  0.11783770  0.89787422    -0.24200
C823        C  0.12642155  0.10371988  0.88246112     0.40400
C824        C  0.13668786  0.12188971  0.86785488    -0.26700
O825        O  0.12098902  0.19961084  0.88573322    -0.58500
H826        H  0.10328594  0.16172467  0.91092738     0.16000
O827        O  0.12783523  0.07228480  0.88088291    -0.60000
H828        H  0.14493523  0.11086363  0.85551050     0.14500
H829        H  0.07587678  0.22988334  0.82924449     0.46300
H830        H  0.14184978  0.20702992  0.88915417     0.41700
H831        H  0.14806859  0.06654250  0.88616383     0.45200
H832        H  0.19547711  0.18993164  0.86399394     0.36700
C833        C  0.50021338  0.95272263  0.48308288    -0.27600
C834        C  0.52352000  0.93597755  0.49182703     0.02000
C835        C  0.52290563  0.90367309  0.49130701     0.30100
C836        C  0.49983416  0.88850778  0.48148663    -0.19400
C837        C  0.47727541  0.90519836  0.47188549    -0.28800
C838        C  0.47727691  0.93764414  0.47307037     0.44100
C839        C  0.54839149  0.95264594  0.50134693     0.05300
O840        O  0.54528657  0.88675420  0.49988234    -0.57300
H841        H  0.50043998  0.86358875  0.48081561     0.18300
O842        O  0.45507236  0.95486795  0.46454241    -0.64000
H843        H  0.50004526  0.97765485  0.48383432     0.16700
C844        C  0.56655604  0.97435570  0.49197604     0.29000
C845        C  0.58720943  0.99291266  0.50164492    -0.24900
C846        C  0.59008498  0.98997664  0.52062415    -0.24200
C847        C  0.57352577  0.96675459  0.52980263     0.40400
C848        C  0.55267700  0.94832804  0.52013518    -0.26700
O849        O  0.56399433  0.97770841  0.47341094    -0.58500
H850        H  0.60002531  0.01056054  0.49441963     0.16000
O851        O  0.57515034  0.96401354  0.54842529    -0.60000
H852        H  0.53868360  0.93173760  0.52746793     0.14500
H853        H  0.46486116  0.96240846  0.45314829     0.46300
H854        H  0.55209471  0.99693918  0.47158757     0.41700
H855        H  0.59066458  0.94772003  0.55063241     0.45200
H856        H  0.56228525  0.88504488  0.49089150     0.36700
C857        C  0.23120353  0.15375560  0.70728590    -0.27600
C858        C  0.23447711  0.15728473  0.72619879     0.02000
C859        C  0.25613391  0.13921560  0.73565056     0.30100
C860        C  0.27626033  0.12016590  0.72587298    -0.19400
C861        C  0.27461405  0.11860374  0.70678503    -0.28800
C862        C  0.25111104  0.13459908  0.69754067     0.44100
C863        C  0.21727329  0.18203935  0.73549131     0.05300
O864        O  0.25768104  0.14020914  0.75437118    -0.57300
H865        H  0.29392140  0.10752084  0.73313728     0.18300
O866        O  0.24894320  0.13362023  0.67886045    -0.64000
H867        H  0.21445362  0.16739747  0.69990153     0.16700
C868        C  0.23311139  0.20600321  0.74444832     0.29000
C869        C  0.21661528  0.22993911  0.75261339    -0.24900
C870        C  0.18423065  0.23046598  0.75207758    -0.24200
C871        C  0.16848429  0.20696189  0.74243545     0.40400
C872        C  0.18505524  0.18301642  0.73427468    -0.26700
O873        O  0.26476812  0.20683838  0.74460295    -0.58500
H874        H  0.22934721  0.24785342  0.75967336     0.16000
O875        O  0.13691093  0.20643632  0.74140973    -0.60000
H876        H  0.17269390  0.16495677  0.72710394     0.14500
H877        H  0.26232178  0.15061871  0.67443478     0.46300
H878        H  0.27081618  0.20426447  0.75757085     0.41700
H879        H  0.13183126  0.21780995  0.73008195     0.45200
H880        H  0.27870083  0.14773023  0.75736122     0.36700
C881        C  0.49518583  0.07625202  0.58841227    -0.27600
C882        C  0.49439357  0.05759439  0.60398472     0.02000
C883        C  0.51918367  0.03781998  0.60767655     0.30100
C884        C  0.54491556  0.03768300  0.59618295    -0.19400
C885        C  0.54655308  0.05737320  0.58097182    -0.28800
C886        C  0.52104261  0.07642226  0.57697576     0.44100
C887        C  0.46838581  0.06024461  0.61686106     0.05300
O888        O  0.51814535  0.01820555  0.62234033    -0.57300
H889        H  0.56383531  0.02239467  0.59942054     0.18300
O890        O  0.52113557  0.09553650  0.56208973    -0.64000
H891        H  0.47607649  0.09147945  0.58543981     0.16700
C892        C  0.47329017  0.07137694  0.63465098     0.29000
C893        C  0.44847227  0.07451905  0.64663271    -0.24900
C894        C  0.41828988  0.06711465  0.64110468    -0.24200
C895        C  0.41347239  0.05589450  0.62318226     0.40400
C896        C  0.43844583  0.05273179  0.61120869    -0.26700
O897        O  0.50221444  0.07997209  0.64031876    -0.58500
H898        H  0.45291374  0.08343138  0.66020156     0.16000
O899        O  0.38445791  0.04885895  0.61697734    -0.60000
H900        H  0.43444247  0.04444611  0.59744717     0.14500
H901        H  0.52871588  0.11566389  0.56671707     0.46300
H902        H  0.50458894  0.10169289  0.63637144     0.41700
H903        H  0.38189175  0.02650108  0.61927969     0.45200
H904        H  0.53282296  0.02688294  0.63138004     0.36700
C905        C  0.48697421  0.46980073  0.48192099    -0.27600
C906        C  0.45748178  0.48253673  0.48431021     0.02000
C907        C  0.45186530  0.51277657  0.47833275     0.30100
C908        C  0.47537082  0.52956926  0.46980366    -0.19400
C909        C  0.50455222  0.51642071  0.46680929    -0.28800
C910        C  0.51036652  0.48643122  0.47317996     0.44100
C911        C  0.43292586  0.46394308  0.49308095     0.05300
O912        O  0.42326233  0.52579593  0.48029475    -0.57300
H913        H  0.47034197  0.55251567  0.46484434     0.18300
O914        O  0.53875240  0.47311448  0.47089008    -0.64000
H915        H  0.49186324  0.44680381  0.48683421     0.16700
C916        C  0.42535283  0.43452708  0.48635119     0.29000
C917        C  0.40486969  0.41572721  0.49601517    -0.24900
C918        C  0.39184140  0.42562562  0.51259810    -0.24200
C919        C  0.39769383  0.45601406  0.51859810     0.40400
C920        C  0.41820779  0.47483956  0.50887953    -0.26700
O921        O  0.43801208  0.42394832  0.47035619    -0.58500
H922        H  0.40033297  0.39272676  0.49089656     0.16000
O923        O  0.38552872  0.46677483  0.53465845    -0.60000
H924        H  0.42376762  0.49749108  0.51418980     0.14500
H925        H  0.55109771  0.48003044  0.48153670     0.46300
H926        H  0.45355126  0.40842781  0.47403798     0.41700
H927        H  0.36587160  0.47678651  0.53118300     0.45200
H928        H  0.41150730  0.51922858  0.46934364     0.36700
C929        C  0.33845539  0.24093124  0.59606702    -0.27600
C930        C  0.33736596  0.24959847  0.61446341     0.02000
C931        C  0.33707306  0.28098642  0.61915779     0.30100
C932        C  0.33801679  0.30335275  0.60538762    -0.19400
C933        C  0.33960419  0.29468465  0.58688698    -0.28800
C934        C  0.33953129  0.26307436  0.58233253     0.44100
C935        C  0.33671262  0.22514754  0.62837044     0.05300
O936        O  0.33633074  0.28996485  0.63710697    -0.57300
H937        H  0.33848344  0.32746327  0.60921935     0.18300
O938        O  0.34104708  0.25344853  0.56451142    -0.64000
H939        H  0.33886505  0.21675568  0.59234933     0.16700
C940        C  0.31175672  0.20450337  0.62900404     0.29000
C941        C  0.31357391  0.17805766  0.63974245    -0.24900
C942        C  0.34025459  0.17164752  0.64988773    -0.24200
C943        C  0.36467509  0.19323142  0.64999493     0.40400
C944        C  0.36272137  0.21985790  0.63927660    -0.26700
O945        O  0.28565183  0.20988937  0.61893392    -0.58500
H946        H  0.29429204  0.16212854  0.63976586     0.16000
O947        O  0.39109809  0.18787050  0.65976579    -0.60000
H948        H  0.38216995  0.23555977  0.63873353     0.14500
H949        H  0.31931420  0.25208484  0.56039205     0.46300
H950        H  0.28762474  0.19665558  0.60795166     0.41700
H951        H  0.40466580  0.17605490  0.65141404     0.45200
H952        H  0.31413293  0.29090189  0.64030814     0.36700
C953        C  0.81003749  0.25393464  0.72318721    -0.27600
C954        C  0.77775694  0.25441149  0.72240444     0.02000
C955        C  0.76083556  0.23082026  0.73098803     0.30100
C956        C  0.77611501  0.20812236  0.74099628    -0.19400
C957        C  0.80838670  0.20841549  0.74271288    -0.28800
C958        C  0.82541787  0.23129200  0.73331815     0.44100
C959        C  0.76154660  0.27967996  0.71288110     0.05300
O960        O  0.72932413  0.22946015  0.72930711    -0.57300
H961        H  0.76247117  0.19054375  0.74771987     0.18300
O962        O  0.85699327  0.23227238  0.73424938    -0.64000
H963        H  0.82330535  0.27173889  0.71640330     0.16700
C964        C  0.74001054  0.29798460  0.72230309     0.29000
C965        C  0.72072570  0.31784066  0.71265653    -0.24900
C966        C  0.72303426  0.32037313  0.69362129    -0.24200
C967        C  0.74646561  0.30416510  0.68436984     0.40400
C968        C  0.76564412  0.28399112  0.69405269    -0.26700
O969        O  0.73657221  0.29543317  0.74085164    -0.58500
H970        H  0.70289019  0.33021619  0.71997139     0.16000
O971        O  0.74915409  0.30590383  0.66573925    -0.60000
H972        H  0.78237462  0.27026466  0.68668056     0.14500
H973        H  0.86174281  0.24658803  0.74443765     0.46300
H974        H  0.75164527  0.31015866  0.74611174     0.41700
H975        H  0.73539821  0.28950563  0.66090097     0.45200
H976        H  0.72106047  0.23464893  0.74155709     0.36700
C977        C  0.54886554  0.38760177  0.60420417    -0.27600
C978        C  0.52034932  0.37668651  0.61059718     0.02000
C979        C  0.51840207  0.36409162  0.62823628     0.30100
C980        C  0.54476737  0.36222044  0.63907682    -0.19400
C981        C  0.57360833  0.37234396  0.63261014    -0.28800
C982        C  0.57542432  0.38541138  0.61500657     0.44100
C983        C  0.49313216  0.37680073  0.59843384     0.05300
O984        O  0.49132928  0.35138964  0.63445019    -0.57300
H985        H  0.54261697  0.35175306  0.65243124     0.18300
O986        O  0.60297433  0.39563358  0.60806151    -0.64000
H987        H  0.55063452  0.39735734  0.59063808     0.16700
C988        C  0.46500515  0.38967905  0.60415521     0.29000
C989        C  0.43891603  0.38696433  0.59315451    -0.24900
C990        C  0.44029684  0.37189297  0.57616692    -0.24200
C991        C  0.46881048  0.36019479  0.57006776     0.40400
C992        C  0.49496089  0.36277764  0.58118400    -0.26700
O993        O  0.46266376  0.40476156  0.62056426    -0.58500
H994        H  0.41737153  0.39635774  0.59814290     0.16000
O995        O  0.47154075  0.34668128  0.55321021    -0.60000
H996        H  0.51657649  0.35308724  0.57650893     0.14500
H997        H  0.61114072  0.37812592  0.60083644     0.46300
H998        H  0.46926132  0.42620328  0.61804582     0.41700
H999        H  0.47080452  0.32418334  0.55552151     0.45200
H1000       H  0.48493827  0.36430620  0.64496997     0.36700
C1001       C  0.68056558  0.23882666  0.61181994    -0.27600
C1002       C  0.66128392  0.21398249  0.61628584     0.02000
C1003       C  0.64058760  0.21699531  0.63101589     0.30100
C1004       C  0.63901094  0.24470551  0.64072471    -0.19400
C1005       C  0.65737329  0.27007382  0.63575617    -0.28800
C1006       C  0.67837770  0.26682441  0.62112891     0.44100
C1007       C  0.66122402  0.18605107  0.60461702     0.05300
O1008       O  0.62111230  0.19334831  0.63571115    -0.57300
H1009       H  0.62272515  0.24651484  0.65188943     0.18300
O1010       O  0.69704681  0.29072582  0.61579156    -0.64000
H1011       H  0.69703407  0.23675063  0.60076675     0.16700
C1012       C  0.65788571  0.18868486  0.58556187     0.29000
C1013       C  0.65460890  0.16229890  0.57486580    -0.24900
C1014       C  0.65446305  0.13287895  0.58277966    -0.24200
C1015       C  0.65929783  0.13008329  0.60173837     0.40400
C1016       C  0.66269156  0.15659775  0.61249519    -0.26700
O1017       O  0.65532336  0.21700828  0.57741138    -0.58500
H1018       H  0.65102626  0.16503984  0.56032078     0.16000
O1019       O  0.65852129  0.10184027  0.61008400    -0.60000
H1020       H  0.66563467  0.15416232  0.62710589     0.14500
H1021       H  0.68596811  0.30071389  0.60554829     0.46300
H1022       H  0.67489277  0.22002628  0.57063728     0.41700
H1023       H  0.68041303  0.09558933  0.61123028     0.45200
H1024       H  0.60251596  0.19619729  0.62802991     0.36700
C1025       C  0.81014507  0.08870599  0.48983379    -0.27600
C1026       C  0.79124297  0.06251859  0.48984691     0.02000
C1027       C  0.79946792  0.03679216  0.47930258     0.30100
C1028       C  0.82631132  0.03757639  0.46874351    -0.19400
C1029       C  0.84554598  0.06375557  0.46868400    -0.28800
C1030       C  0.83728069  0.08941287  0.47951573     0.44100
C1031       C  0.76264653  0.06250147  0.50068898     0.05300
O1032       O  0.78071994  0.01130123  0.47867371    -0.57300
H1033       H  0.83194867  0.01759429  0.46053062     0.18300
O1034       O  0.85498114  0.11563291  0.47977024    -0.64000
H1035       H  0.80384708  0.10865243  0.49791757     0.16700
C1036       C  0.75948488  0.04336291  0.51601245     0.29000
C1037       C  0.73199248  0.04342255  0.52597433    -0.24900
C1038       C  0.70731605  0.06260876  0.52092888    -0.24200
C1039       C  0.71088131  0.08214961  0.50562942     0.40400
C1040       C  0.73839917  0.08192698  0.49567695    -0.26700
O1041       O  0.78316589  0.02453951  0.52135794    -0.58500
H1042       H  0.73005488  0.02832927  0.53767877     0.16000
O1043       O  0.68758033  0.10125284  0.50006069    -0.60000
H1044       H  0.74075267  0.09680474  0.48388958     0.14500
H1045       H  0.86878062  0.11329831  0.49046914     0.46300
H1046       H  0.79666584  0.03767603  0.52906179     0.41700
H1047       H  0.69186676  0.12130310  0.50606349     0.45200
H1048       H  0.79052298  0.99607429  0.48688758     0.36700
C1049       C  0.16759060  0.01585408  0.23762375    -0.27600
C1050       C  0.13977611  0.00454941  0.23043011     0.02000
C1051       C  0.11236897  0.02105098  0.23349866     0.30100
C1052       C  0.11288375  0.04805595  0.24386431    -0.19400
C1053       C  0.14056121  0.05931638  0.25131410    -0.28800
C1054       C  0.16818760  0.04305381  0.24794116     0.44100
C1055       C  0.13928147  0.97553271  0.21977046     0.05300
O1056       O  0.08486931  0.01097080  0.22638900    -0.57300
H1057       H  0.09135845  0.06002989  0.24622474     0.18300
O1058       O  0.19586493  0.05334895  0.25468765    -0.64000
H1059       H  0.18887498  0.00337924  0.23538460     0.16700
C1060       C  0.15797369  0.97176230  0.20423620     0.29000
C1061       C  0.15596568  0.94471156  0.19390704    -0.24900
C1062       C  0.13530888  0.92099914  0.19873844    -0.24200
C1063       C  0.11698315  0.92468692  0.21453409     0.40400
C1064       C  0.11908448  0.95174976  0.22484779    -0.26700
O1065       O  0.17787239  0.99460633  0.19882187    -0.58500
H1066       H  0.17047084  0.94252565  0.18193575     0.16000
O1067       O  0.09663397  0.90226500  0.21995992    -0.60000
H1068       H  0.10478304  0.95421329  0.23689285     0.14500
H1069       H  0.20419321  0.06728161  0.24515376     0.46300
H1070       H  0.16534848  0.00855334  0.19111594     0.41700
H1071       H  0.10819914  0.88950838  0.22883119     0.45200
H1072       H  0.08404556  0.01963691  0.21388922     0.36700
C1073       C  0.09294389  0.07735630  0.35846100    -0.27600
C1074       C  0.06145964  0.07043517  0.35676478     0.02000
C1075       C  0.04758275  0.07111099  0.33940846     0.30100
C1076       C  0.06482629  0.07993909  0.32420057    -0.19400
C1077       C  0.09595149  0.08842856  0.32593786    -0.28800
C1078       C  0.11024544  0.08631138  0.34320500     0.44100
C1079       C  0.04227106  0.06611867  0.37323483     0.05300
O1080       O  0.01648871  0.06607446  0.33745919    -0.57300
H1081       H  0.05329235  0.08158089  0.31111981     0.18300
O1082       O  0.14051304  0.09466620  0.34556923    -0.64000
H1083       H  0.10380049  0.07704312  0.37178017     0.16700
C1084       C  0.02311608  0.04017043  0.37512866     0.29000
C1085       C  0.00080183  0.03945446  0.38885278    -0.24900
C1086       C  0.99736052  0.06429792  0.40105023    -0.24200
C1087       C  0.01836425  0.08916676  0.40003840     0.40400
C1088       C  0.04060121  0.08987788  0.38619278    -0.26700
O1089       O  0.02519207  0.01593120  0.36316380    -0.58500
H1090       H  0.98552968  0.01970403  0.38953768     0.16000
O1091       O  0.01694872  0.11326750  0.41213995    -0.60000
H1092       H  0.05550760  0.10985200  0.38500038     0.14500
H1093       H  0.14001167  0.11688169  0.34874589     0.46300
H1094       H  0.04166650  0.00258156  0.36815337     0.41700
H1095       H  0.00465974  0.12934915  0.40589371     0.45200
H1096       H  0.01463298  0.04613200  0.33093102     0.36700
C1097       C  0.18717453  0.37000736  0.47930635    -0.27600
C1098       C  0.18949252  0.34793859  0.49311708     0.02000
C1099       C  0.16456795  0.32797077  0.49646607     0.30100
C1100       C  0.13799288  0.32968848  0.48560869    -0.19400
C1101       C  0.13580696  0.35140328  0.47140662    -0.28800
C1102       C  0.16072616  0.37193219  0.46851089     0.44100
C1103       C  0.21844253  0.34597082  0.50362778     0.05300
O1104       O  0.16611128  0.30654375  0.51016599    -0.57300
H1105       H  0.11917534  0.31384984  0.48825005     0.18300
O1106       O  0.15974489  0.39388330  0.45508167    -0.64000
H1107       H  0.20616075  0.38572964  0.47679089     0.16700
C1108       C  0.24591183  0.33661855  0.49507013     0.29000
C1109       C  0.27385914  0.33785119  0.50459384    -0.24900
C1110       C  0.27497100  0.34906103  0.52257563    -0.24200
C1111       C  0.24714462  0.35744343  0.53131912     0.40400
C1112       C  0.21916978  0.35581298  0.52182867    -0.26700
O1113       O  0.24558473  0.32628241  0.47736435    -0.58500
H1114       H  0.29483720  0.33105395  0.49765233     0.16000
O1115       O  0.24701428  0.36767979  0.54904283    -0.60000
H1116       H  0.19810999  0.36309801  0.52851323     0.14500
H1117       H  0.16949901  0.38414374  0.44427854     0.46300
H1118       H  0.25145678  0.34436164  0.46986668     0.41700
H1119       H  0.24531110  0.34882139  0.55658760     0.45200
H1120       H  0.17575835  0.28815998  0.50450865     0.36700
C1121       C  0.10365492  0.25243617  0.33394649    -0.27600
C1122       C  0.12573872  0.25387297  0.34794983     0.02000
C1123       C  0.15169902  0.23456051  0.34702785     0.30100
C1124       C  0.15442544  0.21307811  0.33292514    -0.19400
C1125       C  0.13163309  0.21044947  0.31935529    -0.28800
C1126       C  0.10656452  0.23117119  0.31963724     0.44100
C1127       C  0.12013276  0.27327892  0.36430353     0.05300
O1128       O  0.17411761  0.23581095  0.36021318    -0.57300
H1129       H  0.17411417  0.19777492  0.33299873     0.18300
O1130       O  0.08414766  0.23016838  0.30644695    -0.64000
H1131       H  0.08340537  0.26696485  0.33447574     0.16700
C1132       C  0.11282385  0.30476962  0.36287733     0.29000
C1133       C  0.10557000  0.32174245  0.37860736    -0.24900
C1134       C  0.10478070  0.30753237  0.39583563    -0.24200
C1135       C  0.11312222  0.27628017  0.39727292     0.40400
C1136       C  0.12074883  0.25950671  0.38162129    -0.26700
O1137       O  0.11295835  0.31914756  0.34621002    -0.58500
H1138       H  0.09909560  0.34570553  0.37717629     0.16000
O1139       O  0.11391297  0.26188554  0.41392810    -0.60000
H1140       H  0.12616572  0.23526754  0.38298421     0.14500
H1141       H  0.09162068  0.24404884  0.29665494     0.46300
H1142       H  0.09094875  0.32261867  0.34317303     0.41700
H1143       H  0.09485933  0.24923323  0.41445049     0.45200
H1144       H  0.18887893  0.25172462  0.35595019     0.36700
C1145       C  0.83353990  0.40925275  0.24187960    -0.27600
C1146       C  0.85390896  0.41052342  0.22710753     0.02000
C1147       C  0.87257671  0.38496996  0.22311492     0.30100
C1148       C  0.87079543  0.35848944  0.23403816    -0.19400
C1149       C  0.85013440  0.35699776  0.24885387    -0.28800
C1150       C  0.83138075  0.38282440  0.25265679     0.44100
C1151       C  0.85498182  0.43887858  0.21606409     0.05300
O1152       O  0.89310548  0.38598584  0.20888383    -0.57300
H1153       H  0.88557912  0.33911572  0.23089014     0.18300
O1154       O  0.81174376  0.38309127  0.26733809    -0.64000
H1155       H  0.81921163  0.42895709  0.24508344     0.16700
C1156       C  0.83691223  0.44161372  0.20026382     0.29000
C1157       C  0.83481346  0.47000267  0.19130804    -0.24900
C1158       C  0.85076054  0.49608376  0.19785546    -0.24200
C1159       C  0.86965522  0.49284994  0.21349296     0.40400
C1160       C  0.87152954  0.46443165  0.22245270    -0.26700
O1161       O  0.82011996  0.41698677  0.19396143    -0.58500
H1162       H  0.82030630  0.47161159  0.17931786     0.16000
O1163       O  0.88634841  0.51721647  0.22023105    -0.60000
H1164       H  0.88541723  0.46249311  0.23469243     0.14500
H1165       H  0.79120323  0.37775205  0.26227885     0.46300
H1166       H  0.83375266  0.40655575  0.18502375     0.41700
H1167       H  0.87324438  0.52633539  0.22991992     0.45200
H1168       H  0.88203866  0.37665392  0.19839525     0.36700
C1169       C  0.89598759  0.34229213  0.35647784    -0.27600
C1170       C  0.92702414  0.35060732  0.35438135     0.02000
C1171       C  0.93987254  0.35210393  0.33676249     0.30100
C1172       C  0.92232209  0.34296112  0.32165806    -0.19400
C1173       C  0.89180101  0.33271417  0.32385987    -0.28800
C1174       C  0.87831814  0.33345664  0.34139171     0.44100
C1175       C  0.94681643  0.35305747  0.37071138     0.05300
O1176       O  0.97035245  0.35962742  0.33437870    -0.57300
H1177       H  0.93307892  0.34249815  0.30830672     0.18300
O1178       O  0.84868220  0.32335554  0.34417818    -0.64000
H1179       H  0.88592730  0.34103726  0.37000183     0.16700
C1180       C  0.96306830  0.38018291  0.37488339     0.29000
C1181       C  0.98378205  0.38058015  0.38952093    -0.24900
C1182       C  0.98855891  0.35410927  0.40025961    -0.24200
C1183       C  0.97124652  0.32728974  0.39639274     0.40400
C1184       C  0.95064460  0.32698071  0.38172979    -0.26700
O1185       O  0.95932915  0.40619533  0.36453104    -0.58500
H1186       H  0.99658147  0.40156004  0.39221798     0.16000
O1187       O  0.97542152  0.30069755  0.40615089    -0.60000
H1188       H  0.93831971  0.30588781  0.37855436     0.14500
H1189       H  0.85050814  0.30097648  0.34667114     0.46300
H1190       H  0.94126457  0.41687047  0.36988207     0.41700
H1191       H  0.95917701  0.30099234  0.41567574     0.45200
H1192       H  0.97029562  0.38107320  0.32972081     0.36700
C1193       C  0.87210148  0.16705577  0.33523214    -0.27600
C1194       C  0.85134864  0.16851764  0.34989944     0.02000
C1195       C  0.82819743  0.19117365  0.34987788     0.30100
C1196       C  0.82693347  0.21274734  0.33575406    -0.19400
C1197       C  0.84851060  0.21212350  0.32140566    -0.28800
C1198       C  0.87071631  0.18841653  0.32101331     0.44100
C1199       C  0.85634989  0.14847433  0.36594414     0.05300
O1200       O  0.80725376  0.19297147  0.36387466    -0.57300
H1201       H  0.80948143  0.23053160  0.33635040     0.18300
O1202       O  0.89182231  0.18635027  0.30712470    -0.64000
H1203       H  0.89027403  0.14997336  0.33513135     0.16700
C1204       C  0.86040609  0.11645384  0.36403519     0.29000
C1205       C  0.87009241  0.09888885  0.37896299    -0.24900
C1206       C  0.87594208  0.11288213  0.39592652    -0.24200
C1207       C  0.87004294  0.14465724  0.39805350     0.40400
C1208       C  0.86030384  0.16209990  0.38314628    -0.26700
O1209       O  0.85608747  0.10232556  0.34747105    -0.58500
H1210       H  0.87439338  0.07453511  0.37700398     0.16000
O1211       O  0.87408354  0.15903565  0.41458303    -0.60000
H1212       H  0.85735893  0.18671463  0.38485984     0.14500
H1213       H  0.88175930  0.17336958  0.29768711     0.46300
H1214       H  0.83397223  0.09651679  0.34721961     0.41700
H1215       H  0.89410676  0.17001259  0.41360929     0.45200
H1216       H  0.78990161  0.17946051  0.36012657     0.36700
C1217       C  0.16899501  0.09177033  0.99184711    -0.27600
C1218       C  0.19126509  0.06904254  0.98872532     0.02000
C1219       C  0.18541034  0.04574997  0.97585591     0.30100
C1220       C  0.15752253  0.04529514  0.96628939    -0.19400
C1221       C  0.13494526  0.06801783  0.96926769    -0.28800
C1222       C  0.14092929  0.09133939  0.98233058     0.44100
C1223       C  0.22006094  0.06876671  0.99948359     0.05300
O1224       O  0.20691655  0.02331698  0.97250842    -0.57300
H1225       H  0.15383301  0.02723952  0.95629884     0.18300
O1226       O  0.11978875  0.11404023  0.98580335    -0.64000
H1227       H  0.17325662  0.10968782  0.00185694     0.16700
C1228       C  0.24363865  0.09043289  0.99642307     0.29000
C1229       C  0.27126942  0.08860265  0.00630497    -0.24900
C1230       C  0.27560309  0.06556354  0.01956454    -0.24200
C1231       C  0.25147036  0.04422831  0.02275303     0.40400
C1232       C  0.22421718  0.04582084  0.01262332    -0.26700
O1233       O  0.24028022  0.11279245  0.98337746    -0.58500
H1234       H  0.28925392  0.10535797  0.00361463     0.16000
O1235       O  0.25440170  0.02121100  0.03543028    -0.60000
H1236       H  0.20614618  0.02902263  0.01504870     0.14500
H1237       H  0.10693390  0.10600284  0.99593880     0.46300
H1238       H  0.23190248  0.13088139  0.98996577     0.41700
H1239       H  0.24440907  0.02928533  0.04663324     0.45200
H1240       H  0.22105963  0.03231431  0.96329991     0.36700
C1241       C  0.63853236  0.94293723  0.19859889    -0.27600
C1242       C  0.62406353  0.94190976  0.21563662     0.02000
C1243       C  0.61156861  0.96897658  0.22312120     0.30100
C1244       C  0.61498094  0.99703681  0.21393221    -0.19400
C1245       C  0.63088173  0.99852440  0.19721626    -0.28800
C1246       C  0.64190329  0.97085002  0.18933184     0.44100
C1247       C  0.62610457  0.91352764  0.22655740     0.05300
O1248       O  0.59700710  0.96837097  0.23973514    -0.57300
H1249       H  0.60582507  0.01774387  0.22014744     0.18300
O1250       O  0.65678762  0.97077473  0.17280836    -0.64000
H1251       H  0.64831174  0.92217142  0.19278157     0.16700
C1252       C  0.60811398  0.88738765  0.22262378     0.29000
C1253       C  0.61151538  0.86063539  0.23315026    -0.24900
C1254       C  0.63335143  0.85936498  0.24737554    -0.24200
C1255       C  0.65172466  0.88565257  0.25092410     0.40400
C1256       C  0.64776280  0.91241182  0.24066341    -0.26700
O1257       O  0.58666975  0.88806677  0.20887367    -0.58500
H1258       H  0.59706959  0.84087140  0.23014871     0.16000
O1259       O  0.67293662  0.88594982  0.26480255    -0.60000
H1260       H  0.66191787  0.93241926  0.24363408     0.14500
H1261       H  0.64029249  0.96785372  0.16359724     0.46300
H1262       H  0.59761520  0.88031332  0.19791282     0.41700
H1263       H  0.69295139  0.88121471  0.25888608     0.45200
H1264       H  0.57521469  0.96312242  0.23695564     0.36700
C1265       C  0.73471324  0.13202022  0.22944929    -0.27600
C1266       C  0.75613810  0.15037223  0.22004181     0.02000
C1267       C  0.75883652  0.14726453  0.20095821     0.30100
C1268       C  0.73885244  0.12752262  0.19146204    -0.19400
C1269       C  0.71563770  0.11132619  0.20076508    -0.28800
C1270       C  0.71435547  0.11284620  0.21994401     0.44100
C1271       C  0.77306603  0.17486707  0.23000564     0.05300
O1272       O  0.77941812  0.16498169  0.19134540    -0.57300
H1273       H  0.73986851  0.12685824  0.17668544     0.18300
O1274       O  0.69215953  0.09698966  0.22943885    -0.64000
H1275       H  0.73277322  0.13371348  0.24416241     0.16700
C1276       C  0.75678177  0.19723606  0.24002186     0.29000
C1277       C  0.77271153  0.22057422  0.24920000    -0.24900
C1278       C  0.80508480  0.22207556  0.24881883    -0.24200
C1279       C  0.82140572  0.19977389  0.23856850     0.40400
C1280       C  0.80534916  0.17646019  0.22927495    -0.26700
O1281       O  0.72513672  0.19703652  0.24043330    -0.58500
H1282       H  0.75949557  0.23732935  0.25686521     0.16000
O1283       O  0.85301400  0.19984503  0.23796216    -0.60000
H1284       H  0.81816807  0.15932985  0.22165654     0.14500
H1285       H  0.70078028  0.07608826  0.23122165     0.46300
H1286       H  0.71954783  0.18910774  0.25268642     0.41700
H1287       H  0.85840289  0.21192888  0.22693480     0.45200
H1288       H  0.76838512  0.18447116  0.18875372     0.36700
C1289       C  0.54294841  0.04316820  0.11009120    -0.27600
C1290       C  0.51477581  0.05598846  0.11563071     0.02000
C1291       C  0.51249718  0.06979690  0.13294760     0.30100
C1292       C  0.53831597  0.07154968  0.14419508    -0.19400
C1293       C  0.56701238  0.06001567  0.13844399    -0.28800
C1294       C  0.56896234  0.04492792  0.12139263     0.44100
C1295       C  0.48781440  0.05556766  0.10331075     0.05300
O1296       O  0.48530183  0.08254393  0.13880427    -0.57300
H1297       H  0.53591425  0.08297346  0.15727518     0.18300
O1298       O  0.59623041  0.03263809  0.11536560    -0.64000
H1299       H  0.54481451  0.03195679  0.09691642     0.16700
C1300       C  0.48899358  0.06945352  0.08597741     0.29000
C1301       C  0.46226438  0.07120292  0.07528828    -0.24900
C1302       C  0.43415446  0.05904646  0.08163206    -0.24200
C1303       C  0.43326481  0.04494447  0.09901449     0.40400
C1304       C  0.45996739  0.04305911  0.10954500    -0.26700
O1305       O  0.51575643  0.08274422  0.07979052    -0.58500
H1306       H  0.46357206  0.08218806  0.06204420     0.16000
O1307       O  0.40635708  0.03328040  0.10606144    -0.60000
H1308       H  0.45878571  0.03228035  0.12286236     0.14500
H1309       H  0.59625954  0.01114357  0.11992291     0.46300
H1310       H  0.52469816  0.06758188  0.07116661     0.41700
H1311       H  0.39677296  0.05069297  0.11274538     0.45200
H1312       H  0.48575176  0.10410464  0.13435263     0.36700
C1313       C  0.31042132  0.51363105  0.24261957    -0.27600
C1314       C  0.33213372  0.50942249  0.22868421     0.02000
C1315       C  0.35426995  0.53242825  0.22537763     0.30100
C1316       C  0.35469607  0.55916502  0.23606708    -0.19400
C1317       C  0.33315516  0.56350323  0.25021303    -0.28800
C1318       C  0.31060445  0.54045098  0.25326694     0.44100
C1319       C  0.33184183  0.48072229  0.21781744     0.05300
O1320       O  0.37588013  0.52876576  0.21187743    -0.57300
H1321       H  0.37221626  0.57639100  0.23335454     0.18300
O1322       O  0.28912120  0.54337754  0.26690023    -0.64000
H1323       H  0.29323308  0.49601665  0.24524026     0.16700
C1324       C  0.33971229  0.45242860  0.22582480     0.29000
C1325       C  0.33973853  0.42551019  0.21527963    -0.24900
C1326       C  0.33134053  0.42617109  0.19673209    -0.24200
C1327       C  0.32336895  0.45469086  0.18877392     0.40400
C1328       C  0.32381085  0.48165761  0.19930305    -0.26700
O1329       O  0.34818316  0.45103019  0.24384448    -0.58500
H1330       H  0.34585648  0.40396228  0.22175824     0.16000
O1331       O  0.31511253  0.45657132  0.17074410    -0.60000
H1332       H  0.31767620  0.50338475  0.19303274     0.14500
H1333       H  0.27077981  0.55254874  0.26094192     0.46300
H1334       H  0.32911417  0.44536897  0.25051813     0.41700
H1335       H  0.33470895  0.45992759  0.16404644     0.45200
H1336       H  0.39311564  0.51750850  0.21771231     0.36700
C1337       C  0.21968041  0.22237442  0.23438031    -0.27600
C1338       C  0.20027205  0.24372130  0.22581012     0.02000
C1339       C  0.16820765  0.23899171  0.22622488     0.30100
C1340       C  0.15594078  0.21428872  0.23615803    -0.19400
C1341       C  0.17531825  0.19411573  0.24588455    -0.28800
C1342       C  0.20755099  0.19792159  0.24446235     0.44100
C1343       C  0.21426482  0.27094025  0.21689183     0.05300
O1344       O  0.14864668  0.25892239  0.21752027    -0.57300
H1345       H  0.13110686  0.21178383  0.23686042     0.18300
O1346       O  0.22749914  0.17812742  0.25298229    -0.64000
H1347       H  0.24449385  0.22508560  0.23358667     0.16700
C1348       C  0.23498050  0.28979792  0.22664915     0.29000
C1349       C  0.25326753  0.31117404  0.21735716    -0.24900
C1350       C  0.25106777  0.31422942  0.19835544    -0.24200
C1351       C  0.22792673  0.29784184  0.18889113     0.40400
C1352       C  0.20982013  0.27613228  0.19817726    -0.26700
O1353       O  0.23814125  0.28669889  0.24520443    -0.58500
H1354       H  0.27066113  0.32393085  0.22486071     0.16000
O1355       O  0.22533083  0.30010726  0.17028832    -0.60000
H1356       H  0.19388527  0.26184693  0.19051495     0.14500
H1357       H  0.23390962  0.18887074  0.26432669     0.46300
H1358       H  0.25839076  0.27659760  0.24706784     0.41700
H1359       H  0.20956849  0.31622973  0.16823408     0.45200
H1360       H  0.14444377  0.27546769  0.22652307     0.36700
C1361       C  0.31794552  0.18731915  0.08944808    -0.27600
C1362       C  0.31369859  0.18083773  0.10799126     0.02000
C1363       C  0.31305292  0.15010544  0.11392610     0.30100
C1364       C  0.31806408  0.12623477  0.10139767    -0.19400
C1365       C  0.32442917  0.13272619  0.08297036    -0.28800
C1366       C  0.32356088  0.16360308  0.07696349     0.44100
C1367       C  0.31309213  0.20661409  0.12107556     0.05300
O1368       O  0.30768564  0.14331476  0.13193726    -0.57300
H1369       H  0.31837837  0.10271577  0.10631180     0.18300
O1370       O  0.32824620  0.17089711  0.05895660    -0.64000
H1371       H  0.31826607  0.21099353  0.08477109     0.16700
C1372       C  0.33886216  0.21259141  0.13218188     0.29000
C1373       C  0.34009771  0.23955810  0.14260885    -0.24900
C1374       C  0.31588240  0.26090806  0.14204228    -0.24200
C1375       C  0.28943464  0.25416599  0.13152069     0.40400
C1376       C  0.28825430  0.22716224  0.12107435    -0.26700
O1377       O  0.36389231  0.19333172  0.13184070    -0.58500
H1378       H  0.36065378  0.24438293  0.15053025     0.16000
O1379       O  0.26451923  0.27358794  0.13153851    -0.60000
H1380       H  0.26825168  0.22258705  0.11262019     0.14500
H1381       H  0.34985311  0.17837798  0.05825895     0.46300
H1382       H  0.36317370  0.18198606  0.14356637     0.41700
H1383       H  0.26618642  0.28550955  0.12004871     0.45200
H1384       H  0.32789286  0.13679049  0.13692214     0.36700
C1385       C  0.73135586  0.33685102  0.99501373    -0.27600
C1386       C  0.75551304  0.35611248  0.00072749     0.02000
C1387       C  0.75110494  0.37540726  0.01593187     0.30100
C1388       C  0.72267426  0.37574960  0.02496023    -0.19400
C1389       C  0.69808446  0.35689201  0.01912868    -0.28800
C1390       C  0.70280928  0.33717367  0.00400089     0.44100
C1391       C  0.78467503  0.35712224  0.99020242     0.05300
O1392       O  0.77446359  0.39413413  0.02204165    -0.57300
H1393       H  0.71995768  0.39094161  0.03659042     0.18300
O1394       O  0.67983713  0.31802594  0.99785887    -0.64000
H1395       H  0.73440972  0.32199245  0.98325619     0.16700
C1396       C  0.80301073  0.33072632  0.98793001     0.29000
C1397       C  0.83019325  0.33232458  0.97761406    -0.24900
C1398       C  0.83931068  0.35996830  0.96912459    -0.24200
C1399       C  0.82075361  0.38640307  0.97147658     0.40400
C1400       C  0.79389670  0.38483342  0.98204021    -0.26700
O1401       O  0.79501394  0.30352279  0.99620086    -0.58500
H1402       H  0.84394889  0.31168434  0.97610148     0.16000
O1403       O  0.82878738  0.41406820  0.96378693    -0.60000
H1404       H  0.77989839  0.40530455  0.98364359     0.14500
H1405       H  0.66933835  0.32968886  0.98804770     0.46300
H1406       H  0.78570765  0.29073508  0.98642273     0.41700
H1407       H  0.81669406  0.41527999  0.95232618     0.45200
H1408       H  0.78688599  0.38106304  0.03032785     0.36700
C1409       C  0.67586864  0.18950995  0.11552735    -0.27600
C1410       C  0.65479037  0.21354504  0.11790718     0.02000
C1411       C  0.63198217  0.21112391  0.13152075     0.30100
C1412       C  0.63058618  0.18487222  0.14256904    -0.19400
C1413       C  0.65150709  0.16056858  0.14012195    -0.28800
C1414       C  0.67433016  0.16313752  0.12639405     0.44100
C1415       C  0.65525188  0.23990954  0.10518158     0.05300
O1416       O  0.60971400  0.23334547  0.13326606    -0.57300
H1417       H  0.61247233  0.18320169  0.15270999     0.18300
O1418       O  0.69548810  0.14018902  0.12353262    -0.64000
H1419       H  0.69339417  0.19104064  0.10501217     0.16700
C1420       C  0.65688348  0.27046382  0.11157595     0.29000
C1421       C  0.65278499  0.29494093  0.09943880    -0.24900
C1422       C  0.64742060  0.28931945  0.08082625    -0.24200
C1423       C  0.64886738  0.25876814  0.07422064     0.40400
C1424       C  0.65251122  0.23437099  0.08640217    -0.26700
O1425       O  0.66149667  0.27659833  0.12973781    -0.58500
H1426       H  0.65239812  0.31823598  0.10475652     0.16000
O1427       O  0.64559240  0.25233579  0.05597973    -0.60000
H1428       H  0.65194719  0.21096588  0.08123662     0.14500
H1429       H  0.68728778  0.12803767  0.11312077     0.46300
H1430       H  0.68412261  0.27534282  0.13151926     0.41700
H1431       H  0.66661080  0.25436763  0.05077765     0.45200
H1432       H  0.61419922  0.24391347  0.14498532     0.36700
C1433       C  0.42644767  0.37403175  0.10725513    -0.27600
C1434       C  0.45372535  0.35895472  0.11231944     0.02000
C1435       C  0.45491623  0.34360112  0.12917388     0.30100
C1436       C  0.42923509  0.34353106  0.14073083    -0.19400
C1437       C  0.40168772  0.35850386  0.13579464    -0.28800
C1438       C  0.40060329  0.37403597  0.11885262     0.44100
C1439       C  0.48133859  0.36004784  0.10035618     0.05300
O1440       O  0.48109068  0.32829949  0.13441392    -0.57300
H1441       H  0.43084182  0.33111217  0.15350521     0.18300
O1442       O  0.37443530  0.38906039  0.11336723    -0.64000
H1443       H  0.42531849  0.38612770  0.09435027     0.16700
C1444       C  0.48192935  0.34505455  0.08331825     0.29000
C1445       C  0.50900178  0.34518433  0.07276924    -0.24900
C1446       C  0.53574281  0.36059722  0.07883484    -0.24200
C1447       C  0.53472479  0.37604472  0.09586416     0.40400
C1448       C  0.50784368  0.37541432  0.10645546    -0.26700
O1449       O  0.45659317  0.32910580  0.07723443    -0.58500
H1450       H  0.50902586  0.33309715  0.05982266     0.16000
O1451       O  0.56011286  0.39109422  0.10264412    -0.60000
H1452       H  0.50770286  0.38696856  0.11958147     0.14500
H1453       H  0.37672057  0.41037104  0.11807975     0.46300
H1454       H  0.44543452  0.34370049  0.06920874     0.41700
H1455       H  0.55727566  0.41298155  0.09918378     0.45200
H1456       H  0.47898194  0.30732315  0.12916649     0.36700
C1457       C  0.68204774  0.87616396  0.98133212    -0.27600
C1458       C  0.68796569  0.84926126  0.99123288     0.02000
C1459       C  0.66695384  0.82461753  0.99036107     0.30100
C1460       C  0.64031960  0.82716700  0.97962972    -0.19400
C1461       C  0.63445871  0.85400887  0.96943363    -0.28800
C1462       C  0.65579773  0.87863218  0.97038952     0.44100
C1463       C  0.71601028  0.84788926  0.00263154     0.05300
O1464       O  0.67173674  0.79846355  0.00044434    -0.57300
H1465       H  0.62440507  0.80790634  0.97917797     0.18300
O1466       O  0.65114297  0.90545093  0.96092171    -0.64000
H1467       H  0.69810043  0.89531879  0.98196655     0.16700
C1468       C  0.74024234  0.82755412  0.99851254     0.29000
C1469       C  0.76797100  0.82932753  0.00828051    -0.24900
C1470       C  0.77203807  0.85136030  0.02220098    -0.24200
C1471       C  0.74708365  0.87090104  0.02670050     0.40400
C1472       C  0.71958027  0.86918995  0.01683275    -0.26700
O1473       O  0.73745456  0.80662876  0.98455921    -0.58500
H1474       H  0.78655889  0.81387468  0.00462923     0.16000
O1475       O  0.74959832  0.89270811  0.04018912    -0.60000
H1476       H  0.70106107  0.88501206  0.02006492     0.14500
H1477       H  0.66348635  0.90327568  0.94960125     0.46300
H1478       H  0.74432322  0.81774195  0.97346043     0.41700
H1479       H  0.74114506  0.88275717  0.05129868     0.45200
H1480       H  0.67879287  0.78271479  0.99156649     0.36700
C1481       C  0.45686747  0.90515892  0.98906398    -0.27600
C1482       C  0.45980069  0.93716176  0.99065419     0.02000
C1483       C  0.48524786  0.95210390  0.98267787     0.30100
C1484       C  0.50684545  0.93513743  0.97267742    -0.19400
C1485       C  0.50342867  0.90316410  0.97038279    -0.28800
C1486       C  0.47826745  0.88814053  0.97891376     0.44100
C1487       C  0.43600763  0.95506763  0.00038675     0.05300
O1488       O  0.48949511  0.98321311  0.98498804    -0.57300
H1489       H  0.52611160  0.94718727  0.96651365     0.18300
O1490       O  0.47383243  0.85699471  0.97708606    -0.64000
H1491       H  0.43742311  0.89346105  0.99527983     0.16700
C1492       C  0.41770040  0.97646580  0.99094188     0.29000
C1493       C  0.39789472  0.99596278  0.00062188    -0.24900
C1494       C  0.39573449  0.99403847  0.01968099    -0.24200
C1495       C  0.41263403  0.97127087  0.02900825     0.40400
C1496       C  0.43273357  0.95201875  0.01933434    -0.26700
O1497       O  0.41899436  0.97824790  0.97225100    -0.58500
H1498       H  0.38475054  0.01313404  0.99327130     0.16000
O1499       O  0.41174299  0.96947569  0.04769338    -0.60000
H1500       H  0.44674120  0.93557384  0.02670917     0.14500
H1501       H  0.46032958  0.85457831  0.96624760     0.46300
H1502       H  0.42886691  0.99834573  0.96952125     0.41700
H1503       H  0.39608059  0.95347735  0.05042336     0.45200
H1504       H  0.48557853  0.99249291  0.97286085     0.36700
C1505       C  0.32741526  0.91309491  0.74393173    -0.27600
C1506       C  0.34892971  0.91738545  0.72995030     0.02000
C1507       C  0.36918119  0.89346146  0.72529240     0.30100
C1508       C  0.36793497  0.86551608  0.73475711    -0.19400
C1509       C  0.34627179  0.86088429  0.74879345    -0.28800
C1510       C  0.32577208  0.88509046  0.75327264     0.44100
C1511       C  0.34973292  0.94689174  0.72013566     0.05300
O1512       O  0.39073136  0.89749205  0.71179408    -0.57300
H1513       H  0.38398342  0.84746243  0.73107862     0.18300
O1514       O  0.30468474  0.88211488  0.76712456    -0.64000
H1515       H  0.31175871  0.93153636  0.74757104     0.16700
C1516       C  0.33478399  0.95002167  0.70326483     0.29000
C1517       C  0.33516711  0.97836421  0.69425282    -0.24900
C1518       C  0.35030039  0.00402627  0.70191575    -0.24200
C1519       C  0.36545599  0.00060737  0.71889454     0.40400
C1520       C  0.36486837  0.97221066  0.72789775    -0.26700
O1521       O  0.31967025  0.92548019  0.69551588    -0.58500
H1522       H  0.32338705  0.98023041  0.68126770     0.16000
O1523       O  0.38017110  0.02496122  0.72710349    -0.60000
H1524       H  0.37623097  0.96992804  0.74099853     0.14500
H1525       H  0.28511842  0.87613286  0.76104906     0.46300
H1526       H  0.29860645  0.92594644  0.70078336     0.41700
H1527       H  0.40212750  0.02298373  0.72350260     0.45200
H1528       H  0.38045938  0.89056579  0.70042017     0.36700
C1529       C  0.39891144  0.83990089  0.85175721    -0.27600
C1530       C  0.43091023  0.84356626  0.84977080     0.02000
C1531       C  0.44449666  0.83836594  0.83258091     0.30100
C1532       C  0.42621422  0.82889990  0.81788185    -0.19400
C1533       C  0.39432846  0.82414334  0.81998311    -0.28800
C1534       C  0.38065946  0.83007377  0.83710723     0.44100
C1535       C  0.45016635  0.84954487  0.86610780     0.05300
O1536       O  0.47591418  0.83985682  0.83041239    -0.57300
H1537       H  0.43735415  0.82418393  0.80493676     0.18300
O1538       O  0.34980241  0.82500946  0.83997229    -0.64000
H1539       H  0.38817647  0.84363712  0.86493294     0.16700
C1540       C  0.47227227  0.87333642  0.86649211     0.29000
C1541       C  0.49221032  0.87618134  0.88140573    -0.24900
C1542       C  0.49030468  0.85575032  0.89626579    -0.24200
C1543       C  0.46692725  0.83305961  0.89628520     0.40400
C1544       C  0.44715421  0.83015849  0.88130910    -0.26700
O1545       O  0.47490659  0.89365618  0.85225813    -0.58500
H1546       H  0.50974205  0.89399524  0.88106888     0.16000
O1547       O  0.46316981  0.81350225  0.91080917    -0.60000
H1548       H  0.43001291  0.81194679  0.88132899     0.14500
H1549       H  0.34827983  0.80334516  0.84418126     0.46300
H1550       H  0.45971813  0.91008548  0.85487950     0.41700
H1551       H  0.47340414  0.79405233  0.90712272     0.45200
H1552       H  0.47967559  0.85754277  0.82213732     0.36700
C1553       C  0.31017721  0.58091329  0.98754347    -0.27600
C1554       C  0.28849277  0.55715938  0.98582605     0.02000
C1555       C  0.29348432  0.53345463  0.97308783     0.30100
C1556       C  0.31971371  0.53402699  0.96199379    -0.19400
C1557       C  0.34138829  0.55811186  0.96339625    -0.28800
C1558       C  0.33649175  0.58154242  0.97651841     0.44100
C1559       C  0.26021691  0.55782348  0.99698900     0.05300
O1560       O  0.27269536  0.50976935  0.97128210    -0.57300
H1561       H  0.32286824  0.51566094  0.95214672     0.18300
O1562       O  0.35677346  0.60561904  0.97843965    -0.64000
H1563       H  0.30639657  0.59935910  0.99726885     0.16700
C1564       C  0.26160824  0.55533987  0.01609924     0.29000
C1565       C  0.23438776  0.55551823  0.02635806    -0.24900
C1566       C  0.20562517  0.55889957  0.01778596    -0.24200
C1567       C  0.20439048  0.56176002  0.99861397     0.40400
C1568       C  0.23157935  0.56113754  0.98838468    -0.26700
O1569       O  0.28937722  0.55159549  0.02476522    -0.58500
H1570       H  0.23579577  0.55312225  0.04105333     0.16000
O1571       O  0.17673641  0.56447026  0.98967604    -0.60000
H1572       H  0.23033810  0.56319674  0.97366176     0.14500
H1573       H  0.37127657  0.59910690  0.98814530     0.46300
H1574       H  0.29517247  0.57243644  0.02917527     0.41700
H1575       H  0.16987085  0.54302186  0.98731286     0.45200
H1576       H  0.27852035  0.49462167  0.98078209     0.36700
C1577       C  0.52041569  0.51336257  0.98130867    -0.27600
C1578       C  0.51624166  0.48178792  0.98438647     0.02000
C1579       C  0.48944572  0.46712406  0.97777904     0.30100
C1580       C  0.46792394  0.48379791  0.96760362    -0.19400
C1581       C  0.47255033  0.51519418  0.96392336    -0.28800
C1582       C  0.49893531  0.53006281  0.97110219     0.44100
C1583       C  0.53996474  0.46417292  0.99440818     0.05300
O1584       O  0.48367146  0.43674882  0.98175455    -0.57300
H1585       H  0.44761428  0.47201319  0.96250249     0.18300
O1586       O  0.50448335  0.56067788  0.96783334    -0.64000
H1587       H  0.54083960  0.52493021  0.98642539     0.16700
C1588       C  0.55319228  0.43766470  0.98663402     0.29000
C1589       C  0.57219631  0.41886382  0.99713887    -0.24900
C1590       C  0.57904591  0.42644599  0.01534128    -0.24200
C1591       C  0.56831827  0.45459760  0.02253865     0.40400
C1592       C  0.54866929  0.47314318  0.01209862    -0.26700
O1593       O  0.54692094  0.42941666  0.96893460    -0.58500
H1594       H  0.58086902  0.39773408  0.99116815     0.16000
O1595       O  0.57478733  0.46300217  0.04017738    -0.60000
H1596       H  0.53911176  0.49384009  0.01811817     0.14500
H1597       H  0.51667705  0.56117564  0.95637495     0.46300
H1598       H  0.56182682  0.44122271  0.96142196     0.41700
H1599       H  0.59354836  0.47604632  0.03934146     0.45200
H1600       H  0.48490191  0.42564393  0.96993082     0.36700
C1601       C  0.35210970  0.65449867  0.87415013    -0.27600
C1602       C  0.35315076  0.64085785  0.85679668     0.02000
C1603       C  0.36001882  0.60935330  0.85519613     0.30100
C1604       C  0.36727724  0.59226312  0.87077185    -0.19400
C1605       C  0.36825194  0.60635798  0.88806200    -0.28800
C1606       C  0.35978294  0.63758271  0.88971708     0.44100
C1607       C  0.34969059  0.66048348  0.84049290     0.05300
O1608       O  0.36097804  0.59540593  0.83839577    -0.57300
H1609       H  0.37392309  0.56837530  0.86914639     0.18300
O1610       O  0.35938940  0.65189862  0.90643115    -0.64000
H1611       H  0.34683749  0.67877349  0.87555314     0.16700
C1612       C  0.32294482  0.67803886  0.83784457     0.29000
C1613       C  0.32183925  0.69964064  0.82375107    -0.24900
C1614       C  0.34744983  0.70455787  0.81228044    -0.24200
C1615       C  0.37364948  0.68564647  0.81436397     0.40400
C1616       C  0.37460640  0.66388898  0.82843162    -0.26700
O1617       O  0.29783532  0.67426871  0.84903735    -0.58500
H1618       H  0.30115214  0.71334405  0.82227247     0.16000
O1619       O  0.39911604  0.68932313  0.80347429    -0.60000
H1620       H  0.39542844  0.65056353  0.83043255     0.14500
H1621       H  0.37855029  0.66441379  0.90687503     0.46300
H1622       H  0.29810813  0.69225974  0.85738485     0.41700
H1623       H  0.39604876  0.67476823  0.79318384     0.45200
H1624       H  0.33934323  0.58946537  0.83573405     0.36700
C1625       C  0.66245263  0.52026542  0.73632557    -0.27600
C1626       C  0.64203213  0.51908145  0.72153560     0.02000
C1627       C  0.62265382  0.54432891  0.71806351     0.30100
C1628       C  0.62330083  0.56995270  0.72974234    -0.19400
C1629       C  0.64329147  0.57087081  0.74487543    -0.28800
C1630       C  0.66315320  0.54567797  0.74797989     0.44100
C1631       C  0.64027194  0.49035476  0.71073902     0.05300
O1632       O  0.60177669  0.54335662  0.70400013    -0.57300
H1633       H  0.60774246  0.58890406  0.72708456     0.18300
O1634       O  0.68290284  0.54516554  0.76259736    -0.64000
H1635       H  0.67756962  0.50097966  0.73908322     0.16700
C1636       C  0.64669034  0.48986085  0.69191623     0.29000
C1637       C  0.64779990  0.46170126  0.68259645    -0.24900
C1638       C  0.64257550  0.43378799  0.69183497    -0.24200
C1639       C  0.63543361  0.43448345  0.71059985     0.40400
C1640       C  0.63447614  0.46257530  0.71987480    -0.26700
O1641       O  0.65283383  0.51659531  0.68263631    -0.58500
H1642       H  0.65307853  0.46169166  0.66813910     0.16000
O1643       O  0.63110456  0.40777765  0.72026027    -0.60000
H1644       H  0.62973019  0.46265052  0.73440216     0.14500
H1645       H  0.67126424  0.53478405  0.77250154     0.46300
H1646       H  0.67533018  0.51992565  0.68397854     0.41700
H1647       H  0.60843889  0.40526506  0.72120992     0.45200
H1648       H  0.60957528  0.55820940  0.69482620     0.36700
C1649       C  0.53977382  0.57397572  0.82934047    -0.27600
C1650       C  0.55091152  0.57453722  0.84727437     0.02000
C1651       C  0.58187585  0.58214907  0.85062626     0.30100
C1652       C  0.60105066  0.59060806  0.83612584    -0.19400
C1653       C  0.58936962  0.59235874  0.81826628    -0.28800
C1654       C  0.55880664  0.58277042  0.81483388     0.44100
C1655       C  0.52914770  0.57113514  0.86251339     0.05300
O1656       O  0.59314831  0.58270258  0.86811830    -0.57300
H1657       H  0.62444519  0.59790433  0.83906779     0.18300
O1658       O  0.54690573  0.58322392  0.79749501    -0.64000
H1659       H  0.51587253  0.56812242  0.82670655     0.16700
C1660       C  0.51533661  0.59740788  0.87014396     0.29000
C1661       C  0.49427927  0.59428238  0.88442784    -0.24900
C1662       C  0.48625369  0.56501201  0.89104655    -0.24200
C1663       C  0.50044223  0.53868521  0.88350154     0.40400
C1664       C  0.52177555  0.54189398  0.86927509    -0.26700
O1665       O  0.52216352  0.62622446  0.86359947    -0.58500
H1666       H  0.48344597  0.61476478  0.88992740     0.16000
O1667       O  0.49363596  0.50978553  0.88990002    -0.60000
H1668       H  0.53247006  0.52159866  0.86345534     0.14500
H1669       H  0.55276718  0.56314429  0.79205724     0.46300
H1670       H  0.50719487  0.62978517  0.85359037     0.41700
H1671       H  0.50749435  0.50675483  0.90050159     0.45200
H1672       H  0.58987235  0.60409977  0.87246611     0.36700
C1673       C  0.62426364  0.76082486  0.88184532    -0.27600
C1674       C  0.62706403  0.77492018  0.86473907     0.02000
C1675       C  0.62221357  0.80678927  0.86311308     0.30100
C1676       C  0.61306610  0.82390526  0.87836168    -0.19400
C1677       C  0.60826811  0.80945251  0.89529120    -0.28800
C1678       C  0.61495349  0.77780168  0.89706989     0.44100
C1679       C  0.63160096  0.75541207  0.84849265     0.05300
O1680       O  0.62491914  0.82107579  0.84650564    -0.57300
H1681       H  0.60802891  0.84816175  0.87666136     0.18300
O1682       O  0.61111052  0.76287591  0.91340271    -0.64000
H1683       H  0.62780810  0.73623373  0.88320840     0.16700
C1684       C  0.65803620  0.73711175  0.84657278     0.29000
C1685       C  0.66001311  0.71599016  0.83219571    -0.24900
C1686       C  0.63553237  0.71235489  0.81974241    -0.24200
C1687       C  0.60930846  0.73137082  0.82152681     0.40400
C1688       C  0.60766774  0.75281968  0.83573925    -0.26700
O1689       O  0.68207655  0.73988652  0.85864156    -0.58500
H1690       H  0.68055242  0.70196247  0.83108044     0.16000
O1691       O  0.58481251  0.72880486  0.80977796    -0.60000
H1692       H  0.58702766  0.76661771  0.83726271     0.14500
H1693       H  0.63090878  0.76569516  0.91996761     0.46300
H1694       H  0.67974286  0.72235346  0.86719059     0.41700
H1695       H  0.57036624  0.71419600  0.81574489     0.45200
H1696       H  0.64696621  0.82696798  0.84554735     0.36700
C1697       C  0.66800966  0.58801574  0.49287026    -0.27600
C1698       C  0.69156344  0.56662848  0.48970800     0.02000
C1699       C  0.68780470  0.54425267  0.47603391     0.30100
C1700       C  0.66082071  0.54358381  0.46557737    -0.19400
C1701       C  0.63722045  0.56534385  0.46836214    -0.28800
C1702       C  0.64097964  0.58754674  0.48234422     0.44100
C1703       C  0.72021380  0.56787760  0.50059674     0.05300
O1704       O  0.71030159  0.52271103  0.47293239    -0.57300
H1705       H  0.65867610  0.52617115  0.45504328     0.18300
O1706       O  0.61872469  0.60921217  0.48569536    -0.64000
H1707       H  0.67074476  0.60531839  0.50342744     0.16700
C1708       C  0.74700033  0.58175535  0.49356422     0.29000
C1709       C  0.77436345  0.58156640  0.50373146    -0.24900
C1710       C  0.77557494  0.56751252  0.52102126    -0.24200
C1711       C  0.74831468  0.55403732  0.52811994     0.40400
C1712       C  0.72101002  0.55431984  0.51790035    -0.26700
O1713       O  0.74680769  0.59496366  0.47657069    -0.58500
H1714       H  0.79481832  0.59198561  0.49788162     0.16000
O1715       O  0.74808765  0.53999258  0.54487281    -0.60000
H1716       H  0.70045302  0.54352567  0.52339718     0.14500
H1717       H  0.60542494  0.60008527  0.49528345     0.46300
H1718       H  0.73964720  0.61635026  0.47856511     0.41700
H1719       H  0.74216408  0.55636930  0.55363822     0.45200
H1720       H  0.72346741  0.53161123  0.46320283     0.36700
C1721       C  0.92103150  0.47019055  0.49248709    -0.27600
C1722       C  0.93585898  0.44825713  0.50337540     0.02000
C1723       C  0.92757006  0.44528949  0.52183262     0.30100
C1724       C  0.90559178  0.46522598  0.52939083    -0.19400
C1725       C  0.89194260  0.48840940  0.51873373    -0.28800
C1726       C  0.89934468  0.49031263  0.50003736     0.44100
C1727       C  0.96088028  0.42974029  0.49529538     0.05300
O1728       O  0.94256887  0.42468321  0.53285888    -0.57300
H1729       H  0.90090000  0.46395570  0.54390111     0.18300
O1730       O  0.88588366  0.51213522  0.48912765    -0.64000
H1731       H  0.92704118  0.47234077  0.47818296     0.16700
C1732       C  0.95646966  0.39845112  0.49116820     0.29000
C1733       C  0.97882372  0.38254113  0.48111344    -0.24900
C1734       C  0.00579351  0.39752515  0.47510978    -0.24200
C1735       C  0.01101145  0.42836755  0.48036642     0.40400
C1736       C  0.98848755  0.44430129  0.49023729    -0.26700
O1737       O  0.92942927  0.38392587  0.49573581    -0.58500
H1738       H  0.97429004  0.35885485  0.47725694     0.16000
O1739       O  0.03761608  0.44343679  0.47552505    -0.60000
H1740       H  0.99220682  0.46835637  0.49357332     0.14500
H1741       H  0.90187130  0.52827547  0.48737737     0.46300
H1742       H  0.93431342  0.37169960  0.50677938     0.41700
H1743       H  0.05290417  0.43771565  0.48499025     0.45200
H1744       H  0.92774024  0.40756292  0.53473733     0.36700
C1745       C  0.11142161  0.39475311  0.72915670    -0.27600
C1746       C  0.13471347  0.41699188  0.73077865     0.02000
C1747       C  0.15837589  0.41277255  0.74360660     0.30100
C1748       C  0.15872587  0.38635892  0.75453900    -0.19400
C1749       C  0.13569095  0.36361929  0.75285813    -0.28800
C1750       C  0.11171446  0.36822399  0.74004380     0.44100
C1751       C  0.13446406  0.44443715  0.71888462     0.05300
O1752       O  0.18072413  0.43487082  0.74591432    -0.57300
H1753       H  0.17713469  0.38380856  0.76440660     0.18300
O1754       O  0.08871382  0.34681706  0.73777214    -0.64000
H1755       H  0.09308513  0.39786301  0.71928789     0.16700
C1756       C  0.15590619  0.44745664  0.70462125     0.29000
C1757       C  0.15612881  0.47404917  0.69383454    -0.24900
C1758       C  0.13533469  0.49821770  0.69718798    -0.24200
C1759       C  0.11338518  0.49474749  0.71136228     0.40400
C1760       C  0.11310951  0.46799307  0.72203699    -0.26700
O1761       O  0.17633499  0.42418697  0.70092575    -0.58500
H1762       H  0.17301658  0.47587776  0.68299063     0.16000
O1763       O  0.09231841  0.51740977  0.71510863    -0.60000
H1764       H  0.09643963  0.46579256  0.73298686     0.14500
H1765       H  0.07149982  0.35406334  0.74558551     0.46300
H1766       H  0.19644247  0.43146835  0.70572119     0.41700
H1767       H  0.07403780  0.51229516  0.70754749     0.45200
H1768       H  0.19948424  0.42636044  0.74005211     0.36700
C1769       C  0.30190455  0.68366353  0.72000940    -0.27600
C1770       C  0.26987394  0.68069223  0.72159432     0.02000
C1771       C  0.25330662  0.70217857  0.73211618     0.30100
C1772       C  0.26895244  0.72518500  0.74170923    -0.19400
C1773       C  0.30125239  0.72739660  0.74094646    -0.28800
C1774       C  0.31767418  0.70673056  0.72957983     0.44100
C1775       C  0.25364754  0.65490866  0.71259052     0.05300
O1776       O  0.22178173  0.70047687  0.73341440    -0.57300
H1777       H  0.25571963  0.74077470  0.75018745     0.18300
O1778       O  0.34917054  0.70825513  0.72803651    -0.64000
H1779       H  0.31486896  0.66739564  0.71183259     0.16700
C1780       C  0.25495527  0.65090718  0.69354321     0.29000
C1781       C  0.23538219  0.62955494  0.68511806    -0.24900
C1782       C  0.21436188  0.61233961  0.69552790    -0.24200
C1783       C  0.21492319  0.61449240  0.71464784     0.40400
C1784       C  0.23464383  0.63558720  0.72308044    -0.26700
O1785       O  0.27295742  0.66979752  0.68295501    -0.58500
H1786       H  0.23487193  0.62829906  0.67034049     0.16000
O1787       O  0.19510679  0.59731050  0.72511631    -0.60000
H1788       H  0.23404771  0.63795397  0.73780397     0.14500
H1789       H  0.35715680  0.69284483  0.73681305     0.46300
H1790       H  0.29117798  0.65723277  0.67962651     0.41700
H1791       H  0.20524806  0.57698722  0.72644267     0.45200
H1792       H  0.21392392  0.71138678  0.72249056     0.36700
C1793       C  0.01463382  0.55698372  0.62563897    -0.27600
C1794       C  0.02072719  0.54300965  0.60879768     0.02000
C1795       C  0.05070438  0.53309802  0.60470029     0.30100
C1796       C  0.07446788  0.53807287  0.61728660    -0.19400
C1797       C  0.06868268  0.55302740  0.63402777    -0.28800
C1798       C  0.03819253  0.56197511  0.63824180     0.44100
C1799       C  0.99554844  0.54091932  0.59542815     0.05300
O1800       O  0.05707786  0.51916495  0.58831913    -0.57300
H1801       H  0.09758665  0.53085372  0.61370516     0.18300
O1802       O  0.03121760  0.57677577  0.65426822    -0.64000
H1803       H  0.99155334  0.56490114  0.62881378     0.16700
C1804       C  0.96904322  0.52367865  0.59947039     0.29000
C1805       C  0.94256871  0.52730432  0.58891424    -0.24900
C1806       C  0.94192392  0.54835488  0.57432013    -0.24200
C1807       C  0.96942472  0.56373485  0.56939803     0.40400
C1808       C  0.99596286  0.56006135  0.58004345    -0.26700
O1809       O  0.96869959  0.50372605  0.61398252    -0.58500
H1810       H  0.92217555  0.51428946  0.59264044     0.16000
O1811       O  0.97030440  0.58357311  0.55486456    -0.60000
H1812       H  0.01640245  0.57343527  0.57686382     0.14500
H1813       H  0.02488723  0.56022100  0.66280390     0.46300
H1814       H  0.95781175  0.51481816  0.62390593     0.41700
H1815       H  0.97699810  0.57082566  0.54434747     0.45200
H1816       H  0.05375023  0.49686113  0.59047545     0.36700
C1817       C  0.86958548  0.97472264  0.71301715    -0.27600
C1818       C  0.84164224  0.99073432  0.71472904     0.02000
C1819       C  0.81486414  0.97842258  0.70659875     0.30100
C1820       C  0.81628322  0.95031652  0.69714505    -0.19400
C1821       C  0.84407238  0.93384735  0.69589634    -0.28800
C1822       C  0.87094734  0.94654094  0.70372448     0.44100
C1823       C  0.84095447  0.02007304  0.72518439     0.05300
O1824       O  0.78754709  0.99430157  0.70723104    -0.57300
H1825       H  0.79547340  0.94120417  0.69095519     0.18300
O1826       O  0.89880188  0.93188926  0.70210950    -0.64000
H1827       H  0.89043309  0.98402256  0.71906544     0.16700
C1828       C  0.82177646  0.02357194  0.74056388     0.29000
C1829       C  0.82288638  0.05073715  0.75087452    -0.24900
C1830       C  0.84342786  0.07467599  0.74635800    -0.24200
C1831       C  0.86228089  0.07131220  0.73075413     0.40400
C1832       C  0.86102052  0.04416689  0.72039650    -0.26700
O1833       O  0.80262434  0.00014947  0.74603973    -0.58500
H1834       H  0.80824755  0.05261045  0.76280941     0.16000
O1835       O  0.88222123  0.09423633  0.72553091    -0.60000
H1836       H  0.87591713  0.04183052  0.70859793     0.14500
H1837       H  0.90747704  0.93909031  0.69034012     0.46300
H1838       H  0.81561127  0.98660053  0.75370398     0.41700
H1839       H  0.86990954  0.10796632  0.71758224     0.45200
H1840       H  0.77365916  0.98185102  0.71505358     0.36700
C1841       C  0.73831520  0.72472238  0.73943129    -0.27600
C1842       C  0.72284652  0.74526720  0.72789149     0.02000
C1843       C  0.69053860  0.74363803  0.72652132     0.30100
C1844       C  0.67422211  0.72167568  0.73671738    -0.19400
C1845       C  0.68971303  0.70110893  0.74837754    -0.28800
C1846       C  0.72218600  0.70270697  0.74949907     0.44100
C1847       C  0.74137463  0.76683430  0.71672331     0.05300
O1848       O  0.67493160  0.76232850  0.71461079    -0.57300
H1849       H  0.64934423  0.72082975  0.73546101     0.18300
O1850       O  0.73854653  0.68316519  0.76052252    -0.64000
H1851       H  0.76322099  0.72567054  0.74058372     0.16700
C1852       C  0.73701980  0.79904579  0.71740796     0.29000
C1853       C  0.75688258  0.81862637  0.70766487    -0.24900
C1854       C  0.78159694  0.80632254  0.69774875    -0.24200
C1855       C  0.78565268  0.77424062  0.69690700     0.40400
C1856       C  0.76546061  0.75478406  0.70616186    -0.26700
O1857       O  0.71425398  0.81162681  0.72803564    -0.58500
H1858       H  0.75369950  0.84334300  0.70838344     0.16000
O1859       O  0.80903796  0.76167769  0.68671224    -0.60000
H1860       H  0.76896678  0.73010567  0.70536252     0.14500
H1861       H  0.74406736  0.66545547  0.75260698     0.46300
H1862       H  0.72352166  0.81387998  0.74033368     0.41700
H1863       H  0.82608379  0.75803761  0.69546291     0.45200
H1864       H  0.66292340  0.77667691  0.72237232     0.36700
C1865       C  0.83751183  0.65799320  0.61266065    -0.27600
C1866       C  0.84459153  0.68736774  0.60590843     0.02000
C1867       C  0.85091313  0.69102872  0.58723705     0.30100
C1868       C  0.85065528  0.66546186  0.57559722    -0.19400
C1869       C  0.84387053  0.63576684  0.58221252    -0.28800
C1870       C  0.83708241  0.63227021  0.60099089     0.44100
C1871       C  0.84463633  0.71447637  0.61817724     0.05300
O1872       O  0.85844126  0.71945203  0.58036603    -0.57300
H1873       H  0.85622597  0.66895735  0.56133402     0.18300
O1874       O  0.83044797  0.60387308  0.60818008    -0.64000
H1875       H  0.83236150  0.65501042  0.62702409     0.16700
C1876       C  0.82085931  0.73626582  0.61707277     0.29000
C1877       C  0.82231766  0.76325778  0.62744504    -0.24900
C1878       C  0.84731155  0.76911954  0.63921207    -0.24200
C1879       C  0.87087511  0.74679958  0.64063274     0.40400
C1880       C  0.86932552  0.71966185  0.63018343    -0.26700
O1881       O  0.79630159  0.73160335  0.60559347    -0.58500
H1882       H  0.80371021  0.77971737  0.62619123     0.16000
O1883       O  0.89575259  0.75141770  0.65187200    -0.60000
H1884       H  0.88783376  0.70301248  0.63107850     0.14500
H1885       H  0.85046193  0.59581898  0.61262521     0.46300
H1886       H  0.78110324  0.71974989  0.61287333     0.41700
H1887       H  0.91129799  0.76212842  0.64421663     0.45200
H1888       H  0.83896322  0.72770053  0.57526946     0.36700
C1889       C  0.30891125  0.82778304  0.48492598    -0.27600
C1890       C  0.29128276  0.85461119  0.48652765     0.02000
C1891       C  0.30121743  0.88185016  0.47804360     0.30100
C1892       C  0.32870360  0.88211506  0.46813729    -0.19400
C1893       C  0.34675296  0.85536850  0.46656212    -0.28800
C1894       C  0.33662204  0.82801435  0.47513513     0.44100
C1895       C  0.26305990  0.85444608  0.49764058     0.05300
O1896       O  0.28421812  0.90835906  0.47942756    -0.57300
H1897       H  0.33590597  0.90340995  0.46171058     0.18300
O1898       O  0.35306195  0.80118482  0.47362713    -0.64000
H1899       H  0.30132096  0.80671670  0.49147121     0.16700
C1900       C  0.23634914  0.83907938  0.49171155     0.29000
C1901       C  0.20946868  0.84038785  0.50224672    -0.24900
C1902       C  0.20894185  0.85672945  0.51885684    -0.24200
C1903       C  0.23620942  0.87152294  0.52488904     0.40400
C1904       C  0.26283644  0.87046640  0.51420741    -0.26700
O1905       O  0.23596663  0.82386514  0.47528681    -0.58500
H1906       H  0.18891107  0.82893381  0.49724538     0.16000
O1907       O  0.23714106  0.88744719  0.54106521    -0.60000
H1908       H  0.28346801  0.88223360  0.51886556     0.14500
H1909       H  0.36575467  0.80017198  0.48486115     0.46300
H1910       H  0.24104829  0.80221604  0.47823216     0.41700
H1911       H  0.24393371  0.87221506  0.55028853     0.45200
H1912       H  0.26883083  0.90705987  0.46944200     0.36700
C1913       C  0.05686672  0.97519122  0.51693304    -0.27600
C1914       C  0.04950024  0.96894239  0.49866779     0.02000
C1915       C  0.06597400  0.94624527  0.48907034     0.30100
C1916       C  0.08776870  0.92836584  0.49822819    -0.19400
C1917       C  0.09339591  0.93293108  0.51689681    -0.28800
C1918       C  0.07860609  0.95726739  0.52611408     0.44100
C1919       C  0.02407388  0.98575051  0.48989314     0.05300
O1920       O  0.06090051  0.94156715  0.47076937    -0.57300
H1921       H  0.09922774  0.90990746  0.49093660     0.18300
O1922       O  0.08340403  0.96218928  0.54439871    -0.64000
H1923       H  0.04455804  0.99294802  0.52434491     0.16700
C1924       C  0.99825623  0.97002180  0.48284429     0.29000
C1925       C  0.97518864  0.98640830  0.47373859    -0.24900
C1926       C  0.97747151  0.01846926  0.47161754    -0.24200
C1927       C  0.00265517  0.03426120  0.47961586     0.40400
C1928       C  0.02568652  0.01782959  0.48860302    -0.26700
O1929       O  0.99510655  0.93880603  0.48524080    -0.58500
H1930       H  0.95579613  0.97388783  0.46803712     0.16000
O1931       O  0.00608682  0.06552364  0.47781366    -0.60000
H1932       H  0.04535611  0.03011573  0.49415973     0.14500
H1933       H  0.06740774  0.94975105  0.55067158     0.46300
H1934       H  0.99599885  0.92969299  0.47282690     0.41700
H1935       H  0.99703311  0.07440533  0.48907903     0.45200
H1936       H  0.05219382  0.92049303  0.46970598     0.36700
C1937       C  0.12923970  0.70861051  0.62803289    -0.27600
C1938       C  0.15582942  0.71383654  0.61763873     0.02000
C1939       C  0.17956006  0.69191015  0.61757221     0.30100
C1940       C  0.17623981  0.66467773  0.62759234    -0.19400
C1941       C  0.14930399  0.65896160  0.63774862    -0.28800
C1942       C  0.12588762  0.68149344  0.63813509     0.44100
C1943       C  0.15662768  0.74024688  0.60509371     0.05300
O1944       O  0.20598388  0.69693393  0.60770433    -0.57300
H1945       H  0.19473720  0.64795391  0.62735627     0.18300
O1946       O  0.09889126  0.67649609  0.64744903    -0.64000
H1947       H  0.11059286  0.72518495  0.62782754     0.16700
C1948       C  0.14760191  0.73609582  0.58688595     0.29000
C1949       C  0.14518351  0.76144829  0.57534528    -0.24900
C1950       C  0.15163239  0.79140620  0.58167160    -0.24200
C1951       C  0.16187993  0.79536831  0.59984130     0.40400
C1952       C  0.16423305  0.76977964  0.61143647    -0.26700
O1953       O  0.13937493  0.70746833  0.58055751    -0.58500
H1954       H  0.13731787  0.75758500  0.56149351     0.16000
O1955       O  0.16885955  0.82405198  0.60656530    -0.60000
H1956       H  0.17124017  0.77306079  0.62550231     0.14500
H1957       H  0.10127492  0.68783117  0.65912756     0.46300
H1958       H  0.15792878  0.69954482  0.57420668     0.41700
H1959       H  0.14958828  0.83143655  0.61238425     0.45200
H1960       H  0.20275740  0.68600001  0.59596728     0.36700
C1961       C  0.01497888  0.90509583  0.59688825    -0.27600
C1962       C  0.99288360  0.88153526  0.59728762     0.02000
C1963       C  0.99759866  0.85470635  0.58682080     0.30100
C1964       C  0.02450851  0.85146807  0.57646648    -0.19400
C1965       C  0.04728566  0.87450357  0.57665256    -0.28800
C1966       C  0.04209638  0.90171735  0.58678943     0.44100
C1967       C  0.96606785  0.88414151  0.60963136     0.05300
O1968       O  0.97650731  0.83110437  0.58708852    -0.57300
H1969       H  0.02799707  0.83043523  0.56876433     0.18300
O1970       O  0.06303906  0.92546139  0.58662599    -0.64000
H1971       H  0.01138609  0.92602780  0.60467354     0.16700
C1972       C  0.97045456  0.88731345  0.62856762     0.29000
C1973       C  0.94518255  0.88558767  0.64034632    -0.24900
C1974       C  0.91523973  0.88106068  0.63351583    -0.24200
C1975       C  0.91067272  0.88000145  0.61446067     0.40400
C1976       C  0.93606205  0.88132615  0.60268177    -0.26700
O1977       O  0.99958294  0.88952107  0.63577005    -0.58500
H1978       H  0.94921892  0.88646583  0.65493662     0.16000
O1979       O  0.88191848  0.87498654  0.60724439    -0.60000
H1980       H  0.93243313  0.87908864  0.58810559     0.14500
H1981       H  0.07482974  0.92338678  0.59815475     0.46300
H1982       H  0.00240181  0.91165688  0.63875359     0.41700
H1983       H  0.87365943  0.89579074  0.60464758     0.45200
H1984       H  0.98251465  0.81807435  0.59760193     0.36700
loop_ 
_geom_bond_atom_site_label_1 
_geom_bond_atom_site_label_2 
_geom_bond_distance 
_geom_bond_site_symmetry_2 
_ccdc_geom_bond_type 
O1           Cu9   2.008       .  S
O1           C11   1.278       .  A
O2           Cu9   2.017       .  S
O2           C12   1.280       .  A
O3           Cu9   1.977       .  S
O3           C13   1.274       .  A
O4           Cu9   1.981       .  S
O4           C14   1.275       .  A
O5          Cu10   2.021       .  S
O5           C14   1.280       .  A
O6          Cu10   2.013       .  S
O6           C13   1.279       .  A
O7          Cu10   1.986       .  S
O7           C12   1.275       .  A
O8          Cu10   1.993       .  S
O8           C11   1.276       .  A
Cu9         Cu10   2.371       .  S
C11        C1902   1.482       .  S
C12        C1965   1.477       .  S
C13        C1917   1.467       .  S
C14        C1950   1.482       .  S
O15         Cu23   1.999       .  S
O15          C25   1.278       .  A
O16         Cu23   2.006       .  S
O16          C26   1.277       .  A
O17         Cu23   2.018       .  S
O17          C27   1.279       .  A
O18         Cu23   2.013       .  S
O18          C28   1.277       .  A
O19         Cu24   1.989       .  S
O19          C28   1.275       .  A
O20         Cu24   1.984       .  S
O20          C27   1.275       .  A
O21         Cu24   2.022       .  S
O21          C26   1.280       .  A
O22         Cu24   2.024       .  S
O22          C25   1.280       .  A
Cu23        Cu24   2.372       .  S
C25        C1878   1.487       .  S
C26        C1821   1.482       .  S
C27        C1974   1.477       .  S
C28        C1854   1.464       .  S
O29         Cu37   1.995       .  S
O29          C39   1.277       .  A
O30         Cu37   1.995       .  S
O30          C40   1.277       .  A
O31         Cu37   1.999       .  S
O31          C41   1.276       .  A
O32         Cu37   2.003       .  S
O32          C42   1.277       .  A
O33         Cu38   2.011       .  S
O33          C42   1.279       .  A
O34         Cu38   2.019       .  S
O34          C41   1.281       .  A
O35         Cu38   2.001       .  S
O35          C40   1.277       .  A
O36         Cu38   1.996       .  S
O36          C39   1.275       .  A
Cu37        Cu38   2.371       .  S
C39        C1782   1.463       .  S
C40        C1797   1.481       .  S
C41        C1758   1.487       .  S
C42        C1941   1.479       .  S
O43         Cu51   2.020       .  S
O43          C53   1.280       .  A
O44         Cu51   2.029       .  S
O44          C54   1.281       .  A
O45         Cu51   2.004       .  S
O45          C55   1.277       .  A
O46         Cu51   1.979       .  S
O46          C56   1.275       .  A
O47         Cu52   2.019       .  S
O47          C56   1.280       .  A
O48         Cu52   2.022       .  S
O48          C55   1.280       .  A
O49         Cu52   1.998       .  S
O49          C54   1.277       .  A
O50         Cu52   1.987       .  S
O50          C53   1.275       .  A
Cu51        Cu52   2.368       .  S
C53        C1725   1.476       .  S
C54        C1869   1.490       .  S
C55        C1710   1.490       .  S
C56        C1806   1.481       .  S
O57         Cu65   2.004       .  S
O57          C67   1.277       .  A
O58         Cu65   2.000       .  S
O58          C68   1.277       .  A
O59         Cu65   1.993       .  S
O59          C69   1.276       .  A
O60         Cu65   1.996       .  S
O60          C70   1.277       .  A
O61         Cu66   2.008       .  S
O61          C70   1.278       .  A
O62         Cu66   2.008       .  S
O62          C69   1.278       .  A
O63         Cu66   2.002       .  S
O63          C68   1.277       .  A
O64         Cu66   2.002       .  S
O64          C67   1.277       .  A
Cu65        Cu66   2.369       .  S
C67        C1653   1.475       .  S
C68        C1845   1.483       .  S
C69        C1686   1.482       .  S
C70        C1629   1.482       .  S
O71         Cu79   2.001       .  S
O71          C81   1.277       .  A
O72         Cu79   2.006       .  S
O72          C82   1.278       .  A
O73         Cu79   2.009       .  S
O73          C83   1.278       .  A
O74         Cu79   2.005       .  S
O74          C84   1.278       .  A
O75         Cu80   2.000       .  S
O75          C84   1.277       .  A
O76         Cu80   1.996       .  S
O76          C83   1.277       .  A
O77         Cu80   2.001       .  S
O77          C82   1.277       .  A
O78         Cu80   2.000       .  S
O78          C81   1.277       .  A
Cu79        Cu80   2.370       .  S
C81        C1662   1.473       .  S
C82        C1557   1.484       .  S
C83        C1605   1.478       .  S
C84        C1581   1.480       .  S
O85         Cu93   2.010       .  S
O85          C95   1.280       .  A
O86         Cu93   2.013       .  S
O86          C96   1.279       .  A
O87         Cu93   1.990       .  S
O87          C97   1.275       .  A
O88         Cu93   1.985       .  S
O88          C98   1.275       .  A
O89         Cu94   2.019       .  S
O89          C98   1.280       .  A
O90         Cu94   2.017       .  S
O90          C97   1.280       .  A
O91         Cu94   1.988       .  S
O91          C96   1.276       .  A
O92         Cu94   1.989       .  S
O92          C95   1.275       .  A
Cu93        Cu94   2.368       .  S
C95        C1773   1.482       .  S
C96        C1533   1.480       .  S
C97        C1509   1.484       .  S
C98        C1614   1.483       .  S
O99        Cu107   2.002       .  S
O99         C109   1.277       .  A
O100       Cu107   2.000       .  S
O100        C110   1.277       .  A
O101       Cu107   2.011       .  S
O101        C111   1.279       .  A
O102       Cu107   2.008       .  S
O102        C112   1.278       .  A
O103       Cu108   1.994       .  S
O103        C112   1.276       .  A
O104       Cu108   1.999       .  S
O104        C111   1.276       .  A
O105       Cu108   2.007       .  S
O105        C110   1.278       .  A
O106       Cu108   2.009       .  S
O106        C109   1.278       .  A
Cu107      Cu108   2.369       .  S
C109       C1461   1.486       .  S
C110       C1542   1.483       .  S
C111       C1485   1.484       .  S
C112       C1677   1.477       .  S
O113       Cu121   2.022       .  S
O113        C123   1.279       .  A
O114       Cu121   2.018       .  S
O114        C124   1.280       .  A
O115       Cu121   2.005       .  S
O115        C125   1.278       .  A
O116       Cu121   2.003       .  S
O116        C126   1.277       .  A
O117       Cu122   2.031       .  S
O117        C126   1.281       .  A
O118       Cu122   2.018       .  S
O118        C125   1.279       .  A
O119       Cu122   1.981       .  S
O119        C124   1.274       .  A
O120       Cu122   1.983       .  S
O120        C123   1.275       .  A
Cu121      Cu122   2.368       .  S
C123       C1590   1.477       .  S
C124       C1422   1.477       .  S
C125       C1389   1.489       .  S
C126       C1446   1.493       .  S
O127       Cu135   1.998       .  S
O127        C137   1.277       .  A
O128       Cu135   1.987       .  S
O128        C138   1.276       .  A
O129       Cu135   2.009       .  S
O129        C139   1.279       .  A
O130       Cu135   2.008       .  S
O130        C140   1.278       .  A
O131       Cu136   2.013       .  S
O131        C140   1.278       .  A
O132       Cu136   1.995       .  S
O132        C139   1.276       .  A
O133       Cu136   2.021       .  S
O133        C138   1.279       .  A
O134       Cu136   2.032       .  S
O134        C137   1.281       .  A
Cu135      Cu136   2.370       .  S
C137       C1437   1.492       .  S
C138       C1350   1.473       .  S
C139       C1374   1.475       .  S
C140       C1326   1.485       .  S
O141       Cu149   1.990       .  S
O141        C151   1.275       .  A
O142       Cu149   1.981       .  S
O142        C152   1.274       .  A
O143       Cu149   2.024       .  S
O143        C153   1.279       .  A
O144       Cu149   2.019       .  S
O144        C154   1.279       .  A
O145       Cu150   1.978       .  S
O145        C154   1.275       .  A
O146       Cu150   1.987       .  S
O146        C153   1.275       .  A
O147       Cu150   2.025       .  S
O147        C152   1.281       .  A
O148       Cu150   2.018       .  S
O148        C151   1.280       .  A
Cu149      Cu150   2.369       .  S
C151       C1245   1.484   1_545  S
C152       C1413   1.482       .  S
C153       C1269   1.472       .  S
C154       C1293   1.481       .  S
O155       Cu163   2.019       .  S
O155        C165   1.280       .  A
O156       Cu163   2.024       .  S
O156        C166   1.280       .  A
O157       Cu163   1.998       .  S
O157        C167   1.276       .  A
O158       Cu163   1.997       .  S
O158        C168   1.276       .  A
O159       Cu164   2.011       .  S
O159        C168   1.279       .  A
O160       Cu164   2.012       .  S
O160        C167   1.278       .  A
O161       Cu164   1.982       .  S
O161        C166   1.274       .  A
O162       Cu164   1.996       .  S
O162        C165   1.276       .  A
Cu163      Cu164   2.370       .  S
C165       C1230   1.487       .  S
C166       C1302   1.482       .  S
C167       C1494   1.472   1_545  S
C168       C1365   1.480       .  S
O169       Cu177   2.003       .  S
O169        C179   1.279       .  A
O170       Cu177   2.002       .  S
O170        C180   1.277       .  A
O171       Cu177   2.000       .  S
O171        C181   1.277       .  A
O172       Cu177   1.996       .  S
O172        C182   1.276       .  A
O173       Cu178   2.010       .  S
O173        C182   1.279       .  A
O174       Cu178   2.016       .  S
O174        C181   1.279       .  A
O175       Cu178   2.004       .  S
O175        C180   1.278       .  A
O176       Cu178   2.006       .  S
O176        C179   1.277       .  A
Cu177      Cu178   2.369       .  S
C179       C1278   1.486       .  S
C180       C1173   1.476       .  S
C181       C1149   1.485       .  S
C182       C1197   1.482       .  S
O183       Cu191   1.996       .  S
O183        C193   1.277       .  A
O184       Cu191   2.000       .  S
O184        C194   1.276       .  A
O185       Cu191   2.015       .  S
O185        C195   1.280       .  A
O186       Cu191   2.019       .  S
O186        C196   1.280       .  A
O187       Cu192   1.995       .  S
O187        C196   1.276       .  A
O188       Cu192   1.993       .  S
O188        C195   1.276       .  A
O189       Cu192   2.012       .  S
O189        C194   1.279       .  A
O190       Cu192   2.015       .  S
O190        C193   1.279       .  A
Cu191      Cu192   2.368       .  S
C193       C1134   1.479       .  S
C194       C1734   1.480       .  S
C195       C1182   1.484   1_455  S
C196       C1101   1.486       .  S
O197       Cu205   2.007       .  S
O197        C207   1.279       .  A
O198       Cu205   2.012       .  S
O198        C208   1.278       .  A
O199       Cu205   1.996       .  S
O199        C209   1.276       .  A
O200       Cu205   1.991       .  S
O200        C210   1.277       .  A
O201       Cu206   2.011       .  S
O201        C210   1.278       .  A
O202       Cu206   2.006       .  S
O202        C209   1.279       .  A
O203       Cu206   1.998       .  S
O203        C208   1.277       .  A
O204       Cu206   2.004       .  S
O204        C207   1.277       .  A
Cu205      Cu206   2.369       .  S
C207       C1053   1.482       .  S
C208       C1125   1.485       .  S
C209       C1341   1.483       .  S
C210       C1077   1.478       .  S
O211       Cu219   1.992       .  S
O211        C221   1.277       .  A
O212       Cu219   1.996       .  S
O212        C222   1.277       .  A
O213       Cu219   2.016       .  S
O213        C223   1.279       .  A
O214       Cu219   2.010       .  S
O214        C224   1.279       .  A
O215       Cu220   1.982       .  S
O215        C224   1.274       .  A
O216       Cu220   1.985       .  S
O216        C223   1.275       .  A
O217       Cu220   2.007       .  S
O217        C222   1.278       .  A
O218       Cu220   2.011       .  S
O218        C221   1.278       .  A
Cu219      Cu220   2.369       .  S
C221       C1086   1.482       .  S
C222       C1029   1.483       .  S
C223       C1206   1.479       .  S
C224       C1926   1.477       .  S
O225       Cu233   2.020       .  S
O225        C235   1.279       .  A
O226       Cu233   2.025       .  S
O226        C236   1.280       .  A
O227       Cu233   1.991       .  S
O227        C237   1.276       .  A
O228       Cu233   2.004       .  S
O228        C238   1.277       .  A
O229       Cu234   2.001       .  S
O229        C238   1.277       .  A
O230       Cu234   2.009       .  S
O230        C237   1.279       .  A
O231       Cu234   1.982       .  S
O231        C236   1.275       .  A
O232       Cu234   1.981       .  S
O232        C235   1.275       .  A
Cu233      Cu234   2.370       .  S
C235        C981   1.483       .  S
C236        C966   1.473       .  S
C237       C1005   1.482       .  S
C238       C1638   1.477       .  S
O239       Cu247   1.986       .  S
O239        C249   1.276       .  A
O240       Cu247   1.986       .  S
O240        C250   1.275       .  A
O241       Cu247   2.017       .  S
O241        C251   1.280       .  A
O242       Cu247   2.018       .  S
O242        C252   1.279       .  A
O243       Cu248   1.982       .  S
O243        C252   1.275       .  A
O244       Cu248   1.998       .  S
O244        C251   1.276       .  A
O245       Cu248   2.017       .  S
O245        C250   1.279       .  A
O246       Cu248   2.022       .  S
O246        C249   1.280       .  A
Cu247      Cu248   2.370       .  S
C249        C918   1.483       .  S
C250        C933   1.478       .  S
C251       C1110   1.481       .  S
C252        C990   1.479       .  S
O253       Cu261   1.997       .  S
O253        C263   1.276       .  A
O254       Cu261   2.004       .  S
O254        C264   1.277       .  A
O255       Cu261   2.005       .  S
O255        C265   1.278       .  A
O256       Cu261   1.997       .  S
O256        C266   1.278       .  A
O257       Cu262   2.007       .  S
O257        C266   1.277       .  A
O258       Cu262   2.001       .  S
O258        C265   1.277       .  A
O259       Cu262   2.000       .  S
O259        C264   1.278       .  A
O260       Cu262   1.998       .  S
O260        C263   1.277       .  A
Cu261      Cu262   2.371       .  S
C263        C861   1.467       .  S
C264        C894   1.483       .  S
C265       C1518   1.484       .  S
C266        C942   1.476       .  S
O267       Cu275   2.008       .  S
O267        C277   1.279       .  A
O268       Cu275   1.997       .  S
O268        C278   1.277       .  A
O269       Cu275   2.011       .  S
O269        C279   1.278       .  A
O270       Cu275   2.016       .  S
O270        C280   1.279       .  A
O271       Cu276   1.981       .  S
O271        C280   1.276       .  A
O272       Cu276   1.979       .  S
O272        C279   1.274       .  A
O273       Cu276   2.008       .  S
O273        C278   1.278       .  A
O274       Cu276   1.998       .  S
O274        C277   1.277       .  A
Cu275      Cu276   2.371       .  S
C277       C1038   1.484       .  S
C278        C885   1.483       .  S
C279        C846   1.466   1_545  S
C280       C1014   1.477       .  S
O281       Cu289   2.013       .  S
O281        C291   1.279       .  A
O282       Cu289   2.006       .  S
O282        C292   1.277       .  A
O283       Cu289   1.998       .  S
O283        C293   1.278       .  A
O284       Cu289   2.002       .  S
O284        C294   1.277       .  A
O285       Cu290   1.996       .  S
O285        C294   1.277       .  A
O286       Cu290   1.997       .  S
O286        C293   1.276       .  A
O287       Cu290   2.002       .  S
O287        C292   1.278       .  A
O288       Cu290   2.008       .  S
O288        C291   1.277       .  A
Cu289      Cu290   2.369       .  S
C291       C1749   1.489       .  S
C292        C813   1.479       .  S
C293        C870   1.481       .  S
C294        C798   1.475       .  S
O295       Cu303   2.010       .  S
O295        C305   1.280       .  A
O296       Cu303   2.017       .  S
O296        C306   1.279       .  A
O297       Cu303   2.009       .  S
O297        C307   1.278       .  A
O298       Cu303   1.996       .  S
O298        C308   1.276       .  A
O299       Cu304   2.003       .  S
O299        C308   1.278       .  A
O300       Cu304   2.009       .  S
O300        C307   1.278       .  A
O301       Cu304   1.991       .  S
O301        C306   1.277       .  A
O302       Cu304   1.993       .  S
O302        C305   1.275       .  A
Cu303      Cu304   2.368       .  S
C305        C741   1.484       .  S
C306        C765   1.482       .  S
C307       C1398   1.487       .  S
C308        C789   1.480       .  S
O309       Cu317   2.008       .  S
O309        C319   1.278       .  A
O310       Cu317   2.001       .  S
O310        C320   1.278       .  A
O311       Cu317   2.007       .  S
O311        C321   1.279       .  A
O312       Cu317   2.013       .  S
O312        C322   1.278       .  A
O313       Cu318   2.010       .  S
O313        C322   1.278       .  A
O314       Cu318   2.008       .  S
O314        C321   1.277       .  A
O315       Cu318   2.016       .  S
O315        C320   1.279       .  A
O316       Cu318   2.015       .  S
O316        C319   1.279       .  A
Cu317      Cu318   2.368       .  S
C319       C1830   1.487       .  S
C320        C774   1.486       .  S
C321        C957   1.486       .  S
C322        C726   1.480       .  S
O323       Cu331   2.015       .  S
O323        C333   1.279       .  A
O324       Cu331   2.015       .  S
O324        C334   1.279       .  A
O325       Cu331   1.996       .  S
O325        C335   1.277       .  A
O326       Cu331   2.005       .  S
O326        C336   1.277       .  A
O327       Cu332   2.014       .  S
O327        C336   1.280       .  A
O328       Cu332   2.013       .  S
O328        C335   1.278       .  A
O329       Cu332   2.007       .  S
O329        C334   1.278       .  A
O330       Cu332   2.009       .  S
O330        C333   1.278       .  A
Cu331      Cu332   2.366       .  S
C333        C717   1.489   1_455  S
C334       C1221   1.489       .  S
C335        C822   1.484       .  S
C336        C702   1.487   1_455  S
O337       Cu345   1.998       .  S
O337        C347   1.278       .  A
O338       Cu345   1.999       .  S
O338        C348   1.276       .  A
O339       Cu345   2.007       .  S
O339        C349   1.278       .  A
O340       Cu345   2.010       .  S
O340        C350   1.279       .  A
O341       Cu346   2.003       .  S
O341        C350   1.277       .  A
O342       Cu346   1.990       .  S
O342        C349   1.276       .  A
O343       Cu346   1.996       .  S
O343        C348   1.278       .  A
O344       Cu346   2.003       .  S
O344        C347   1.277       .  A
Cu345      Cu346   2.370       .  S
C347        C654   1.482       .  S
C348        C630   1.471       .  S
C349        C669   1.479       .  S
C350       C1317   1.487       .  S
O351       Cu359   2.018       .  S
O351        C361   1.279       .  A
O352       Cu359   2.015       .  S
O352        C362   1.279       .  A
O353       Cu359   1.994       .  S
O353        C363   1.276       .  A
O354       Cu359   2.000       .  S
O354        C364   1.277       .  A
O355       Cu360   2.022       .  S
O355        C364   1.280       .  A
O356       Cu360   2.015       .  S
O356        C363   1.280       .  A
O357       Cu360   1.996       .  S
O357        C362   1.276       .  A
O358       Cu360   1.997       .  S
O358        C361   1.277       .  A
Cu359      Cu360   2.369       .  S
C361        C597   1.483       .  S
C362        C909   1.477       .  S
C363        C645   1.483       .  S
C364       C1701   1.489       .  S
O365       Cu373   2.003       .  S
O365        C375   1.278       .  A
O366       Cu373   2.005       .  S
O366        C376   1.278       .  A
O367       Cu373   1.994       .  S
O367        C377   1.277       .  A
O368       Cu373   1.992       .  S
O368        C378   1.277       .  A
O369       Cu374   2.007       .  S
O369        C378   1.278       .  A
O370       Cu374   2.006       .  S
O370        C377   1.278       .  A
O371       Cu374   1.983       .  S
O371        C376   1.275       .  A
O372       Cu374   1.987       .  S
O372        C375   1.276       .  A
Cu373      Cu374   2.369       .  S
C375        C837   1.478       .  S
C376        C678   1.477       .  S
C377       C1893   1.479       .  S
C378        C573   1.481       .  S
O379       Cu387   1.998       .  S
O379        C389   1.277       .  A
O380       Cu387   2.006       .  S
O380        C390   1.278       .  A
O381       Cu387   2.002       .  S
O381        C391   1.277       .  A
O382       Cu387   2.004       .  S
O382        C392   1.278       .  A
O383       Cu388   2.002       .  S
O383        C392   1.276       .  A
O384       Cu388   1.996       .  S
O384        C391   1.277       .  A
O385       Cu388   2.012       .  S
O385        C390   1.278       .  A
O386       Cu388   2.013       .  S
O386        C389   1.279       .  A
Cu387      Cu388   2.370       .  S
C389        C606   1.485       .  S
C390       C1254   1.486       .  S
C391        C582   1.476       .  S
C392        C549   1.472       .  S
O393       Cu401   2.012       .  S
O393        C403   1.279       .  A
O394       Cu401   2.018       .  S
O394        C404   1.279       .  A
O395       Cu401   1.975       .  S
O395        C405   1.274       .  A
O396       Cu401   1.981       .  S
O396        C406   1.275       .  A
O397       Cu402   2.020       .  S
O397        C406   1.279       .  A
O398       Cu402   2.016       .  S
O398        C405   1.279       .  A
O399       Cu402   1.991       .  S
O399        C404   1.277       .  A
O400       Cu402   1.997       .  S
O400        C403   1.277       .  A
Cu401      Cu402   2.369       .  S
C403       C1062   1.485       .  S
C404        C534   1.485       .  S
C405        C621   1.476       .  S
C406        C501   1.477       .  S
O407       Cu415   1.988       .  S
O407        C417   1.275       .  A
O408       Cu415   1.989       .  S
O408        C418   1.275       .  A
O409       Cu415   2.021       .  S
O409        C419   1.280       .  A
O410       Cu415   2.018       .  S
O410        C420   1.280       .  A
O411       Cu416   1.994       .  S
O411        C420   1.276       .  A
O412       Cu416   1.981       .  S
O412        C419   1.274       .  A
O413       Cu416   2.026       .  S
O413        C418   1.281       .  A
O414       Cu416   2.029       .  S
O414        C417   1.281       .  A
Cu415      Cu416   2.368       .  S
C417        C486   1.483       .  S
C418        C693   1.481       .  S
C419        C510   1.480       .  S
C420       C1470   1.486       .  S
O421       Cu429   2.005       .  S
O421        C431   1.278       .  A
O422       Cu429   1.990       .  S
O422        C432   1.276       .  A
O423       Cu429   2.014       .  S
O423        C433   1.278       .  A
O424       Cu429   2.012       .  S
O424        C434   1.279       .  A
O425       Cu430   1.994       .  S
O425        C434   1.276       .  A
O426       Cu430   1.987       .  S
O426        C433   1.276       .  A
O427       Cu430   2.008       .  S
O427        C432   1.279       .  A
O428       Cu430   1.998       .  S
O428        C431   1.277       .  A
Cu429      Cu430   2.372       .  S
C431       C1566   1.475       .  S
C432        C462   1.481       .  S
C433        C750   1.467       .  S
C434        C525   1.479       .  S
O435       Cu443   2.008       .  S
O435        C445   1.278       .  A
O436       Cu443   2.006       .  S
O436        C446   1.277       .  A
O437       Cu443   1.995       .  S
O437        C447   1.276       .  A
O438       Cu443   1.990       .  S
O438        C448   1.276       .  A
O439       Cu444   2.007       .  S
O439        C448   1.278       .  A
O440       Cu444   2.009       .  S
O440        C447   1.277       .  A
O441       Cu444   2.006       .  S
O441        C446   1.279       .  A
O442       Cu444   2.015       .  S
O442        C445   1.280       .  A
Cu443      Cu444   2.370       .  S
C445       C1158   1.490       .  S
C446        C477   1.482       .  S
C447        C558   1.462       .  S
C448        C453   1.481       .  S
C449        C450   1.401       .  A
C449        C454   1.394       .  A
C449        H459   1.084       .  S
C450        C455   1.477       .  S
C450        C451   1.406       .  A
C451        C452   1.401       .  A
C451        O456   1.373       .  S
C452        C453   1.408       .  A
C452        H457   1.083       .  S
C453        C454   1.413       .  A
C454        O458   1.372       .  S
C455        C460   1.407       .  A
C455        C464   1.400   1_655  A
O456        H472   0.991       .  S
O458        H469   0.992       .  S
C460        C461   1.399   1_655  A
C460        O465   1.372       .  S
C461        C462   1.407       .  A
C461        H466   1.083       .  S
C462        C463   1.413       .  A
C463        C464   1.394       .  A
C463        O467   1.371       .  S
C464        H468   1.084       .  S
O465        H470   0.992       .  S
O467        H471   0.992       .  S
C473        C474   1.402       .  A
C473        C478   1.401       .  A
C473        H483   1.084       .  S
C474        C479   1.480       .  S
C474        C475   1.407       .  A
C475        C476   1.398       .  A
C475        O480   1.372       .  S
C476        C477   1.406       .  A
C476        H481   1.083       .  S
C477        C478   1.413       .  A
C478        O482   1.372       .  S
C479        C484   1.407       .  A
C479        C488   1.400       .  A
O480        H496   0.992       .  S
O482        H493   0.992       .  S
C484        C485   1.404       .  A
C484        O489   1.372       .  S
C485        C486   1.407       .  A
C485        H490   1.083       .  S
C486        C487   1.413       .  A
C487        C488   1.396       .  A
C487        O491   1.372       .  S
C488        H492   1.084       .  S
O489        H494   0.992       .  S
O491        H495   0.992       .  S
C497        C498   1.401       .  A
C497        C502   1.393       .  A
C497        H507   1.084   1_455  S
C498        C503   1.477   1_455  S
C498        C499   1.407       .  A
C499        C500   1.403       .  A
C499        O504   1.373       .  S
C500        C501   1.406       .  A
C500        H505   1.083       .  S
C501        C502   1.411       .  A
C502        O506   1.372       .  S
C503        C508   1.409       .  A
C503        C512   1.400       .  A
O504        H520   0.992       .  S
O506        H517   0.992       .  S
C508        C509   1.400       .  A
C508        O513   1.372   1_655  S
C509        C510   1.404       .  A
C509        H514   1.083       .  S
C510        C511   1.414       .  A
C511        C512   1.396       .  A
C511        O515   1.372       .  S
C512        H516   1.084       .  S
O513        H518   0.991       .  S
O515        H519   0.992       .  S
C521        C522   1.403       .  A
C521        C526   1.398       .  A
C521        H531   1.083       .  S
C522        C527   1.480       .  S
C522        C523   1.407       .  A
C523        C524   1.400       .  A
C523        O528   1.372       .  S
C524        C525   1.406       .  A
C524        H529   1.083       .  S
C525        C526   1.410       .  A
C526        O530   1.372       .  S
C527        C532   1.405       .  A
C527        C536   1.404       .  A
O528        H544   0.991       .  S
O530        H541   0.992       .  S
C532        C533   1.396       .  A
C532        O537   1.373       .  S
C533        C534   1.407       .  A
C533        H538   1.083       .  S
C534        C535   1.413       .  A
C535        C536   1.402       .  A
C535        O539   1.371       .  S
C536        H540   1.084       .  S
O537        H542   0.992       .  S
O539        H543   0.992       .  S
C545        C546   1.402       .  A
C545        C550   1.395       .  A
C545        H555   1.084       .  S
C546        C551   1.480       .  S
C546        C547   1.410       .  A
C547        C548   1.403       .  A
C547        O552   1.373       .  S
C548        C549   1.403       .  A
C548        H553   1.084       .  S
C549        C550   1.409       .  A
C550        O554   1.372       .  S
C551        C556   1.407       .  A
C551        C560   1.408       .  A
O552        H568   0.992       .  S
O554        H565   0.992       .  S
C556        C557   1.395       .  A
C556        O561   1.372       .  S
C557        C558   1.401       .  A
C557        H562   1.085       .  S
C558        C559   1.402       .  A
C559        C560   1.403       .  A
C559        O563   1.371       .  S
C560        H564   1.083       .  S
O561        H566   0.991       .  S
O563        H567   0.992       .  S
C569        C570   1.403       .  A
C569        C574   1.399       .  A
C569        H579   1.083       .  S
C570        C575   1.479       .  S
C570        C571   1.406       .  A
C571        C572   1.395       .  A
C571        O576   1.372       .  S
C572        C573   1.407       .  A
C572        H577   1.083       .  S
C573        C574   1.412       .  A
C574        O578   1.371       .  S
C575        C580   1.407       .  A
C575        C584   1.403       .  A
O576        H592   0.992       .  S
O578        H589   0.992       .  S
C580        C581   1.400       .  A
C580        O585   1.372       .  S
C581        C582   1.406       .  A
C581        H586   1.084       .  S
C582        C583   1.409       .  A
C583        C584   1.396       .  A
C583        O587   1.372       .  S
C584        H588   1.084       .  S
O585        H590   0.992       .  S
O587        H591   0.992       .  S
C593        C594   1.405       .  A
C593        C598   1.400       .  A
C593        H603   1.084       .  S
C594        C599   1.485       .  S
C594        C595   1.409       .  A
C595        C596   1.400       .  A
C595        O600   1.372       .  S
C596        C597   1.406       .  A
C596        H601   1.084       .  S
C597        C598   1.411       .  A
C598        O602   1.372       .  S
C599        C604   1.408       .  A
C599        C608   1.404       .  A
O600        H616   0.992       .  S
O602        H613   0.992       .  S
C604        C605   1.403       .  A
C604        O609   1.373       .  S
C605        C606   1.408       .  A
C605        H610   1.083       .  S
C606        C607   1.411       .  A
C607        C608   1.397       .  A
C607        O611   1.371       .  S
C608        H612   1.084       .  S
O609        H614   0.992       .  S
O611        H615   0.992       .  S
C617        C618   1.399       .  A
C617        C622   1.391       .  A
C617        H627   1.084       .  S
C618        C623   1.476       .  S
C618        C619   1.408       .  A
C619        C620   1.401       .  A
C619        O624   1.371       .  S
C620        C621   1.406       .  A
C620        H625   1.083       .  S
C621        C622   1.412       .  A
C622        O626   1.372       .  S
C623        C628   1.407       .  A
C623        C632   1.404       .  A
O624        H640   0.992       .  S
O626        H637   0.992       .  S
C628        C629   1.392       .  A
C628        O633   1.372       .  S
C629        C630   1.403       .  A
C629        H634   1.084       .  S
C630        C631   1.409       .  A
C631        C632   1.401       .  A
C631        O635   1.371       .  S
C632        H636   1.083       .  S
O633        H638   0.991       .  S
O635        H639   0.992       .  S
C641        C642   1.399       .  A
C641        C646   1.397       .  A
C641        H651   1.084       .  S
C642        C647   1.472       .  S
C642        C643   1.405       .  A
C643        C644   1.399       .  A
C643        O648   1.372       .  S
C644        C645   1.407       .  A
C644        H649   1.083       .  S
C645        C646   1.415       .  A
C646        O650   1.372       .  S
C647        C652   1.403       .  A
C647        C656   1.400       .  A
O648        H664   0.991       .  S
O650        H661   0.992       .  S
C652        C653   1.393       .  A
C652        O657   1.372       .  S
C653        C654   1.406       .  A
C653        H658   1.083       .  S
C654        C655   1.415       .  A
C655        C656   1.402       .  A
C655        O659   1.371       .  S
C656        H660   1.084       .  S
O657        H662   0.992       .  S
O659        H663   0.992       .  S
C665        C666   1.396       .  A
C665        C670   1.395       .  A
C665        H675   1.084       .  S
C666        C671   1.465       .  S
C666        C667   1.403       .  A
C667        C668   1.398       .  A
C667        O672   1.372       .  S
C668        C669   1.407       .  A
C668        H673   1.083       .  S
C669        C670   1.414       .  A
C670        O674   1.372       .  S
C671        C676   1.402       .  A
C671        C680   1.397       .  A
O672        H688   0.991       .  S
O674        H685   0.992       .  S
C676        C677   1.399       .  A
C676        O681   1.371       .  S
C677        C678   1.408       .  A
C677        H682   1.083       .  S
C678        C679   1.414       .  A
C679        C680   1.393       .  A
C679        O683   1.372       .  S
C680        H684   1.084       .  S
O681        H686   0.992       .  S
O683        H687   0.991       .  S
C689        C690   1.405       .  A
C689        C694   1.398       .  A
C689        H699   1.083       .  S
C690        C695   1.491       .  S
C690        C691   1.412   1_556  A
C691        C692   1.402       .  A
C691        O696   1.371   1_565  S
C692        C693   1.405       .  A
C692        H697   1.083       .  S
C693        C694   1.411   1_554  A
C694        O698   1.372       .  S
C695        C700   1.412       .  A
C695        C704   1.404   1_565  A
O696        H712   0.991   1_545  S
O698        H709   0.991       .  S
C700        C701   1.400   1_655  A
C700        O705   1.373       .  S
C701        C702   1.404   1_465  A
C701        H706   1.083       .  S
C702        C703   1.414       .  A
C703        C704   1.402       .  A
C703        O707   1.371       .  S
C704        H708   1.083       .  S
O705        H710   0.992       .  S
O707        H711   0.992       .  S
C713        C714   1.403       .  A
C713        C718   1.400       .  A
C713        H723   1.084       .  S
C714        C719   1.485       .  S
C714        C715   1.407       .  A
C715        C716   1.402       .  A
C715        O720   1.371       .  S
C716        C717   1.409       .  A
C716        H721   1.083       .  S
C717        C718   1.413       .  A
C718        O722   1.371       .  S
C719        C724   1.409       .  A
C719        C728   1.404       .  A
O720        H736   0.992       .  S
O722        H733   0.991       .  S
C724        C725   1.400       .  A
C724        O729   1.372       .  S
C725        C726   1.405       .  A
C725        H730   1.084       .  S
C726        C727   1.409       .  A
C727        C728   1.401       .  A
C727        O731   1.372       .  S
C728        H732   1.083       .  S
O729        H734   0.990       .  S
O731        H735   0.992       .  S
C737        C738   1.401       .  A
C737        C742   1.400   1_455  A
C737        H747   1.084   1_556  S
C738        C743   1.480   1_556  S
C738        C739   1.409       .  A
C739        C740   1.395   1_455  A
C739        O744   1.372       .  S
C740        C741   1.405       .  A
C740        H745   1.083       .  S
C741        C742   1.416       .  A
C742        O746   1.371       .  S
C743        C748   1.409       .  A
C743        C752   1.404   1_554  A
O744        H760   0.991       .  S
O746        H757   0.992       .  S
C748        C749   1.400       .  A
C748        O753   1.372       .  S
C749        C750   1.403       .  A
C749        H754   1.084       .  S
C750        C751   1.406   1_554  A
C751        C752   1.396       .  A
C751        O755   1.372       .  S
C752        H756   1.084       .  S
O753        H758   0.991       .  S
O755        H759   0.991       .  S
C761        C762   1.402       .  A
C761        C766   1.404       .  A
C761        H771   1.084       .  S
C762        C767   1.475       .  S
C762        C763   1.404       .  A
C763        C764   1.395       .  A
C763        O768   1.372       .  S
C764        C765   1.405       .  A
C764        H769   1.084       .  S
C765        C766   1.414       .  A
C766        O770   1.372       .  S
C767        C772   1.403       .  A
C767        C776   1.401       .  A
O768        H784   0.991       .  S
O770        H781   0.992       .  S
C772        C773   1.399       .  A
C772        O777   1.372       .  S
C773        C774   1.408       .  A
C773        H778   1.083       .  S
C774        C775   1.414       .  A
C775        C776   1.402       .  A
C775        O779   1.371       .  S
C776        H780   1.084       .  S
O777        H782   0.991       .  S
O779        H783   0.992       .  S
C785        C786   1.399       .  A
C785        C790   1.398       .  A
C785        H795   1.084       .  S
C786        C791   1.470       .  S
C786        C787   1.404       .  A
C787        C788   1.395       .  A
C787        O792   1.372       .  S
C788        C789   1.406   1_455  A
C788        H793   1.083       .  S
C789        C790   1.414   1_655  A
C790        O794   1.371   1_455  S
C791        C796   1.405       .  A
C791        C800   1.399       .  A
O792        H808   0.992       .  S
O794        H805   0.992   1_655  S
C796        C797   1.396       .  A
C796        O801   1.372       .  S
C797        C798   1.404       .  A
C797        H802   1.084       .  S
C798        C799   1.413       .  A
C799        C800   1.398       .  A
C799        O803   1.371       .  S
C800        H804   1.084       .  S
O801        H806   0.991       .  S
O803        H807   0.992       .  S
C809        C810   1.399       .  A
C809        C814   1.394       .  A
C809        H819   1.084       .  S
C810        C815   1.470       .  S
C810        C811   1.403       .  A
C811        C812   1.402       .  A
C811        O816   1.371       .  S
C812        C813   1.409       .  A
C812        H817   1.083       .  S
C813        C814   1.411       .  A
C814        O818   1.372       .  S
C815        C820   1.403       .  A
C815        C824   1.400       .  A
O816        H832   0.991       .  S
O818        H829   0.992       .  S
C820        C821   1.394       .  A
C820        O825   1.372       .  S
C821        C822   1.407       .  A
C821        H826   1.083       .  S
C822        C823   1.415       .  A
C823        C824   1.402       .  A
C823        O827   1.371       .  S
C824        H828   1.084       .  S
O825        H830   0.992       .  S
O827        H831   0.992       .  S
C833        C834   1.402       .  A
C833        C838   1.397       .  A
C833        H843   1.084       .  S
C834        C839   1.472       .  S
C834        C835   1.403       .  A
C835        C836   1.395       .  A
C835        O840   1.372       .  S
C836        C837   1.408       .  A
C836        H841   1.083       .  S
C837        C838   1.411       .  A
C838        O842   1.372       .  S
C839        C844   1.406       .  A
C839        C848   1.402       .  A
O840        H856   0.991       .  S
O842        H853   0.992       .  S
C844        C845   1.396       .  A
C844        O849   1.373       .  S
C845        C846   1.402       .  A
C845        H850   1.084   1_565  S
C846        C847   1.408       .  A
C847        C848   1.398       .  A
C847        O851   1.372       .  S
C848        H852   1.084       .  S
O849        H854   0.992       .  S
O851        H855   0.991       .  S
C857        C858   1.401       .  A
C857        C862   1.396       .  A
C857        H867   1.084       .  S
C858        C863   1.475       .  S
C858        C859   1.408       .  A
C859        C860   1.400       .  A
C859        O864   1.374       .  S
C860        C861   1.402       .  A
C860        H865   1.084       .  S
C861        C862   1.409       .  A
C862        O866   1.372       .  S
C863        C868   1.407       .  A
C863        C872   1.401       .  A
O864        H880   0.992       .  S
O866        H877   0.992       .  S
C868        C869   1.397       .  A
C868        O873   1.373       .  S
C869        C870   1.405       .  A
C869        H874   1.083       .  S
C870        C871   1.414       .  A
C871        C872   1.399       .  A
C871        O875   1.371       .  S
C872        H876   1.084       .  S
O873        H878   0.992       .  S
O875        H879   0.992       .  S
C881        C882   1.401       .  A
C881        C886   1.399       .  A
C881        H891   1.084       .  S
C882        C887   1.475       .  S
C882        C883   1.404       .  A
C883        C884   1.398       .  A
C883        O888   1.373       .  S
C884        C885   1.407       .  A
C884        H889   1.083       .  S
C885        C886   1.414       .  A
C886        O890   1.371       .  S
C887        C892   1.405       .  A
C887        C896   1.400       .  A
O888        H904   0.992       .  S
O890        H901   0.992       .  S
C892        C893   1.395       .  A
C892        O897   1.372       .  S
C893        C894   1.406       .  A
C893        H898   1.083       .  S
C894        C895   1.415       .  A
C895        C896   1.400       .  A
C895        O899   1.371       .  S
C896        H900   1.084       .  S
O897        H902   0.992       .  S
O899        H903   0.991       .  S
C905        C906   1.405       .  A
C905        C910   1.399       .  A
C905        H915   1.083       .  S
C906        C911   1.482       .  S
C906        C907   1.406       .  A
C907        C908   1.399       .  A
C907        O912   1.372       .  S
C908        C909   1.407       .  A
C908        H913   1.084       .  S
C909        C910   1.407       .  A
C910        O914   1.371       .  S
C911        C916   1.406       .  A
C911        C920   1.404       .  A
O912        H928   0.992       .  S
O914        H925   0.992       .  S
C916        C917   1.398       .  A
C916        O921   1.373       .  S
C917        C918   1.407       .  A
C917        H922   1.084       .  S
C918        C919   1.412       .  A
C919        C920   1.401       .  A
C919        O923   1.371       .  S
C920        H924   1.083       .  S
O921        H926   0.992       .  S
O923        H927   0.991       .  S
C929        C930   1.399       .  A
C929        C934   1.393       .  A
C929        H939   1.084       .  S
C930        C935   1.473       .  S
C930        C931   1.405       .  A
C931        C932   1.402       .  A
C931        O936   1.371       .  S
C932        C933   1.408       .  A
C932        H937   1.083       .  S
C933        C934   1.412       .  A
C934        O938   1.372       .  S
C935        C940   1.404       .  A
C935        C944   1.402       .  A
O936        H952   0.992       .  S
O938        H949   0.991       .  S
C940        C941   1.395       .  A
C940        O945   1.372       .  S
C941        C942   1.404       .  A
C941        H946   1.084       .  S
C942        C943   1.412       .  A
C943        C944   1.401       .  A
C943        O947   1.372       .  S
C944        H948   1.084       .  S
O945        H950   0.992       .  S
O947        H951   0.992       .  S
C953        C954   1.401       .  A
C953        C958   1.403       .  A
C953        H963   1.084       .  S
C954        C959   1.480       .  S
C954        C955   1.407       .  A
C955        C956   1.398       .  A
C955        O960   1.373       .  S
C956        C957   1.405       .  A
C956        H961   1.083       .  S
C957        C958   1.415       .  A
C958        O962   1.371       .  S
C959        C964   1.408       .  A
C959        C968   1.403       .  A
O960        H976   0.992       .  S
O962        H973   0.992       .  S
C964        C965   1.396       .  A
C964        O969   1.372       .  S
C965        C966   1.403       .  A
C965        H970   1.084       .  S
C966        C967   1.410       .  A
C967        C968   1.403       .  A
C967        O971   1.372       .  S
C968        H972   1.084       .  S
O969        H974   0.991       .  S
O971        H975   0.993       .  S
C977        C978   1.404       .  A
C977        C982   1.401       .  A
C977        H987   1.084       .  S
C978        C983   1.479       .  S
C978        C979   1.406       .  A
C979        C980   1.395       .  A
C979        O984   1.373       .  S
C980        C981   1.407       .  A
C980        H985   1.083       .  S
C981        C982   1.412       .  A
C982        O986   1.371       .  S
C983        C988   1.406       .  A
C983        C992   1.404       .  A
O984       H1000   0.992       .  S
O986        H997   0.992       .  S
C988        C989   1.394       .  A
C988        O993   1.372       .  S
C989        C990   1.406       .  A
C989        H994   1.083       .  S
C990        C991   1.410       .  A
C991        C992   1.400       .  A
C991        O995   1.372       .  S
C992        H996   1.084       .  S
O993        H998   0.991       .  S
O995        H999   0.992       .  S
C1001      C1002   1.402       .  A
C1001      C1006   1.396       .  A
C1001      H1011   1.083       .  S
C1002      C1007   1.482       .  S
C1002      C1003   1.409       .  A
C1003      C1004   1.398       .  A
C1003      O1008   1.372       .  S
C1004      C1005   1.406       .  A
C1004      H1009   1.083       .  S
C1005      C1006   1.413       .  A
C1006      O1010   1.372       .  S
C1007      C1012   1.408       .  A
C1007      C1016   1.405       .  A
O1008      H1024   0.992       .  S
O1010      H1021   0.992       .  S
C1012      C1013   1.394       .  A
C1012      O1017   1.373       .  S
C1013      C1014   1.404       .  A
C1013      H1018   1.084       .  S
C1014      C1015   1.410       .  A
C1015      C1016   1.401       .  A
C1015      O1019   1.371       .  S
C1016      H1020   1.083       .  S
O1017      H1022   0.991       .  S
O1019      H1023   0.992       .  S
C1025      C1026   1.400       .  A
C1025      C1030   1.399       .  A
C1025      H1035   1.084       .  S
C1026      C1031   1.472       .  S
C1026      C1027   1.404       .  A
C1027      C1028   1.398       .  A
C1027      O1032   1.372       .  S
C1028      C1029   1.408       .  A
C1028      H1033   1.083       .  S
C1029      C1030   1.413       .  A
C1030      O1034   1.371       .  S
C1031      C1036   1.404       .  A
C1031      C1040   1.399       .  A
O1032      H1048   0.991   1_545  S
O1034      H1045   0.992       .  S
C1036      C1037   1.398       .  A
C1036      O1041   1.372       .  S
C1037      C1038   1.408       .  A
C1037      H1042   1.083       .  S
C1038      C1039   1.415       .  A
C1039      C1040   1.398       .  A
C1039      O1043   1.371       .  S
C1040      H1044   1.084       .  S
O1041      H1046   0.992       .  S
O1043      H1047   0.992       .  S
C1049      C1050   1.403       .  A
C1049      C1054   1.401       .  A
C1049      H1059   1.084       .  S
C1050      C1055   1.481   1_545  S
C1050      C1051   1.407       .  A
C1051      C1052   1.396       .  A
C1051      O1056   1.372       .  S
C1052      C1053   1.405       .  A
C1052      H1057   1.083       .  S
C1053      C1054   1.414       .  A
C1054      O1058   1.372       .  S
C1055      C1060   1.407       .  A
C1055      C1064   1.403       .  A
O1056      H1072   0.991       .  S
O1058      H1069   0.992       .  S
C1060      C1061   1.398       .  A
C1060      O1065   1.372       .  S
C1061      C1062   1.408       .  A
C1061      H1066   1.083       .  S
C1062      C1063   1.413       .  A
C1063      C1064   1.399       .  A
C1063      O1067   1.371       .  S
C1064      H1068   1.084       .  S
O1065      H1070   0.992   1_565  S
O1067      H1071   0.992       .  S
C1073      C1074   1.403       .  A
C1073      C1078   1.401       .  A
C1073      H1083   1.084       .  S
C1074      C1079   1.477       .  S
C1074      C1075   1.407       .  A
C1075      C1076   1.395       .  A
C1075      O1080   1.373       .  S
C1076      C1077   1.404       .  A
C1076      H1081   1.084       .  S
C1077      C1078   1.412       .  A
C1078      O1082   1.372       .  S
C1079      C1084   1.405       .  A
C1079      C1088   1.403       .  A
O1080      H1096   0.991       .  S
O1082      H1093   0.992       .  S
C1084      C1085   1.395       .  A
C1084      O1089   1.371       .  S
C1085      C1086   1.408   1_455  A
C1085      H1090   1.083   1_455  S
C1086      C1087   1.413   1_655  A
C1087      C1088   1.400       .  A
C1087      O1091   1.372       .  S
C1088      H1092   1.084       .  S
O1089      H1094   0.991       .  S
O1091      H1095   0.992       .  S
C1097      C1098   1.398       .  A
C1097      C1102   1.396       .  A
C1097      H1107   1.084       .  S
C1098      C1103   1.476       .  S
C1098      C1099   1.405       .  A
C1099      C1100   1.403       .  A
C1099      O1104   1.371       .  S
C1100      C1101   1.409       .  A
C1100      H1105   1.083       .  S
C1101      C1102   1.415       .  A
C1102      O1106   1.372       .  S
C1103      C1108   1.406       .  A
C1103      C1112   1.400       .  A
O1104      H1120   0.992       .  S
O1106      H1117   0.992       .  S
C1108      C1109   1.399       .  A
C1108      O1113   1.372       .  S
C1109      C1110   1.404       .  A
C1109      H1114   1.083       .  S
C1110      C1111   1.414       .  A
C1111      C1112   1.400       .  A
C1111      O1115   1.372       .  S
C1112      H1116   1.084       .  S
O1113      H1118   0.991       .  S
O1115      H1119   0.991       .  S
C1121      C1122   1.405       .  A
C1121      C1126   1.402       .  A
C1121      H1131   1.083       .  S
C1122      C1127   1.484       .  S
C1122      C1123   1.407       .  A
C1123      C1124   1.396       .  A
C1123      O1128   1.372       .  S
C1124      C1125   1.406       .  A
C1124      H1129   1.083       .  S
C1125      C1126   1.413       .  A
C1126      O1130   1.371       .  S
C1127      C1132   1.408       .  A
C1127      C1136   1.404       .  A
O1128      H1144   0.991       .  S
O1130      H1141   0.991       .  S
C1132      C1133   1.403       .  A
C1132      O1137   1.372       .  S
C1133      C1134   1.406       .  A
C1133      H1138   1.084       .  S
C1134      C1135   1.409       .  A
C1135      C1136   1.397       .  A
C1135      O1139   1.372       .  S
C1136      H1140   1.084       .  S
O1137      H1142   0.992       .  S
O1139      H1143   0.992       .  S
C1145      C1146   1.398       .  A
C1145      C1150   1.397       .  A
C1145      H1155   1.084       .  S
C1146      C1151   1.475       .  S
C1146      C1147   1.405       .  A
C1147      C1148   1.404       .  A
C1147      O1152   1.371       .  S
C1148      C1149   1.409       .  A
C1148      H1153   1.083       .  S
C1149      C1150   1.414       .  A
C1150      O1154   1.372       .  S
C1151      C1156   1.403       .  A
C1151      C1160   1.400       .  A
O1152      H1168   0.991       .  S
O1154      H1165   0.992       .  S
C1156      C1157   1.400       .  A
C1156      O1161   1.371       .  S
C1157      C1158   1.409       .  A
C1157      H1162   1.083       .  S
C1158      C1159   1.416       .  A
C1159      C1160   1.401       .  A
C1159      O1163   1.371       .  S
C1160      H1164   1.084       .  S
O1161      H1166   0.992       .  S
O1163      H1167   0.992       .  S
C1169      C1170   1.401       .  A
C1169      C1174   1.398       .  A
C1169      H1179   1.084       .  S
C1170      C1175   1.476       .  S
C1170      C1171   1.407       .  A
C1171      C1172   1.400       .  A
C1171      O1176   1.372       .  S
C1172      C1173   1.404       .  A
C1172      H1177   1.084       .  S
C1173      C1174   1.411       .  A
C1174      O1178   1.372       .  S
C1175      C1180   1.404       .  A
C1175      C1184   1.402       .  A
O1176      H1192   0.992       .  S
O1178      H1189   0.992       .  S
C1180      C1181   1.399       .  A
C1180      O1185   1.371       .  S
C1181      C1182   1.410       .  A
C1181      H1186   1.083       .  S
C1182      C1183   1.412       .  A
C1183      C1184   1.397       .  A
C1183      O1187   1.371       .  S
C1184      H1188   1.084       .  S
O1185      H1190   0.992       .  S
O1187      H1191   0.991       .  S
C1193      C1194   1.403       .  A
C1193      C1198   1.397       .  A
C1193      H1203   1.084       .  S
C1194      C1199   1.480       .  S
C1194      C1195   1.407       .  A
C1195      C1196   1.398       .  A
C1195      O1200   1.372       .  S
C1196      C1197   1.407       .  A
C1196      H1201   1.083       .  S
C1197      C1198   1.411       .  A
C1198      O1202   1.371       .  S
C1199      C1204   1.408       .  A
C1199      C1208   1.402       .  A
O1200      H1216   0.991       .  S
O1202      H1213   0.992       .  S
C1204      C1205   1.400       .  A
C1204      O1209   1.371       .  S
C1205      C1206   1.405       .  A
C1205      H1210   1.083       .  S
C1206      C1207   1.412       .  A
C1207      C1208   1.396       .  A
C1207      O1211   1.372       .  S
C1208      H1212   1.084       .  S
O1209      H1214   0.991       .  S
O1211      H1215   0.992       .  S
C1217      C1218   1.401       .  A
C1217      C1222   1.403       .  A
C1217      H1227   1.084   1_556  S
C1218      C1223   1.477       .  S
C1218      C1219   1.404       .  A
C1219      C1220   1.398       .  A
C1219      O1224   1.372       .  S
C1220      C1221   1.408       .  A
C1220      H1225   1.083       .  S
C1221      C1222   1.416       .  A
C1222      O1226   1.371       .  S
C1223      C1228   1.406       .  A
C1223      C1232   1.398   1_556  A
O1224      H1240   0.992       .  S
O1226      H1237   0.992       .  S
C1228      C1229   1.403   1_556  A
C1228      O1233   1.371       .  S
C1229      C1230   1.408       .  A
C1229      H1234   1.083       .  S
C1230      C1231   1.415       .  A
C1231      C1232   1.398       .  A
C1231      O1235   1.372       .  S
C1232      H1236   1.084       .  S
O1233      H1238   0.991       .  S
O1235      H1239   0.992       .  S
C1241      C1242   1.398       .  A
C1241      C1246   1.397       .  A
C1241      H1251   1.084       .  S
C1242      C1247   1.473       .  S
C1242      C1243   1.406       .  A
C1243      C1244   1.400       .  A
C1243      O1248   1.371       .  S
C1244      C1245   1.407       .  A
C1244      H1249   1.083   1_565  S
C1245      C1246   1.416       .  A
C1246      O1250   1.372       .  S
C1247      C1252   1.405       .  A
C1247      C1256   1.398       .  A
O1248      H1264   0.993       .  S
O1250      H1261   0.991       .  S
C1252      C1253   1.403       .  A
C1252      O1257   1.372       .  S
C1253      C1254   1.410       .  A
C1253      H1258   1.083       .  S
C1254      C1255   1.414       .  A
C1255      C1256   1.396       .  A
C1255      O1259   1.371       .  S
C1256      H1260   1.084       .  S
O1257      H1262   0.991       .  S
O1259      H1263   0.992       .  S
C1265      C1266   1.404       .  A
C1265      C1270   1.397       .  A
C1265      H1275   1.084       .  S
C1266      C1271   1.482       .  S
C1266      C1267   1.409       .  A
C1267      C1268   1.401       .  A
C1267      O1272   1.372       .  S
C1268      C1269   1.403       .  A
C1268      H1273   1.084       .  S
C1269      C1270   1.408       .  A
C1270      O1274   1.372       .  S
C1271      C1276   1.407       .  A
C1271      C1280   1.402       .  A
O1272      H1288   0.992       .  S
O1274      H1285   0.991       .  S
C1276      C1277   1.396       .  A
C1276      O1281   1.373       .  S
C1277      C1278   1.405       .  A
C1277      H1282   1.083       .  S
C1278      C1279   1.415       .  A
C1279      C1280   1.402       .  A
C1279      O1283   1.371       .  S
C1280      H1284   1.084       .  S
O1281      H1286   0.992       .  S
O1283      H1287   0.992       .  S
C1289      C1290   1.403       .  A
C1289      C1294   1.401       .  A
C1289      H1299   1.083       .  S
C1290      C1295   1.477       .  S
C1290      C1291   1.406       .  A
C1291      C1292   1.392       .  A
C1291      O1296   1.372       .  S
C1292      C1293   1.407       .  A
C1292      H1297   1.083       .  S
C1293      C1294   1.412       .  A
C1294      O1298   1.371       .  S
C1295      C1300   1.407       .  A
C1295      C1304   1.399       .  A
O1296      H1312   0.992       .  S
O1298      H1309   0.992       .  S
C1300      C1301   1.401       .  A
C1300      O1305   1.372       .  S
C1301      C1302   1.406       .  A
C1301      H1306   1.083       .  S
C1302      C1303   1.414       .  A
C1303      C1304   1.394       .  A
C1303      O1307   1.372       .  S
C1304      H1308   1.084       .  S
O1305      H1310   0.991       .  S
O1307      H1311   0.992       .  S
C1313      C1314   1.401       .  A
C1313      C1318   1.400       .  A
C1313      H1323   1.084       .  S
C1314      C1319   1.477       .  S
C1314      C1315   1.405       .  A
C1315      C1316   1.399       .  A
C1315      O1320   1.372       .  S
C1316      C1317   1.408       .  A
C1316      H1321   1.083       .  S
C1317      C1318   1.415       .  A
C1318      O1322   1.371       .  S
C1319      C1324   1.405       .  A
C1319      C1328   1.401       .  A
O1320      H1336   0.991       .  S
O1322      H1333   0.992       .  S
C1324      C1325   1.400       .  A
C1324      O1329   1.372       .  S
C1325      C1326   1.407       .  A
C1325      H1330   1.083       .  S
C1326      C1327   1.413       .  A
C1327      C1328   1.401       .  A
C1327      O1331   1.371       .  S
C1328      H1332   1.084       .  S
O1329      H1334   0.991       .  S
O1331      H1335   0.992       .  S
C1337      C1338   1.403       .  A
C1337      C1342   1.396       .  A
C1337      H1347   1.084       .  S
C1338      C1343   1.480       .  S
C1338      C1339   1.405       .  A
C1339      C1340   1.401       .  A
C1339      O1344   1.371       .  S
C1340      C1341   1.410       .  A
C1340      H1345   1.083       .  S
C1341      C1342   1.411       .  A
C1342      O1346   1.372       .  S
C1343      C1348   1.408       .  A
C1343      C1352   1.403       .  A
O1344      H1360   0.992       .  S
O1346      H1357   0.992       .  S
C1348      C1349   1.397       .  A
C1348      O1353   1.373       .  S
C1349      C1350   1.402       .  A
C1349      H1354   1.084       .  S
C1350      C1351   1.410       .  A
C1351      C1352   1.402       .  A
C1351      O1355   1.371       .  S
C1352      H1356   1.083       .  S
O1353      H1358   0.992       .  S
O1355      H1359   0.991       .  S
C1361      C1362   1.400       .  A
C1361      C1366   1.398       .  A
C1361      H1371   1.084       .  S
C1362      C1367   1.472       .  S
C1362      C1363   1.404       .  A
C1363      C1364   1.400       .  A
C1363      O1368   1.372       .  S
C1364      C1365   1.407       .  A
C1364      H1369   1.083       .  S
C1365      C1366   1.412       .  A
C1366      O1370   1.372       .  S
C1367      C1372   1.406       .  A
C1367      C1376   1.400       .  A
O1368      H1384   0.992       .  S
O1370      H1381   0.992       .  S
C1372      C1373   1.398       .  A
C1372      O1377   1.372       .  S
C1373      C1374   1.403       .  A
C1373      H1378   1.084       .  S
C1374      C1375   1.412       .  A
C1375      C1376   1.400       .  A
C1375      O1379   1.372       .  S
C1376      H1380   1.084       .  S
O1377      H1382   0.991       .  S
O1379      H1383   0.991       .  S
C1385      C1386   1.402   1_556  A
C1385      C1390   1.402   1_556  A
C1385      H1395   1.084       .  S
C1386      C1391   1.481   1_554  S
C1386      C1387   1.406       .  A
C1387      C1388   1.399       .  A
C1387      O1392   1.372       .  S
C1388      C1389   1.409       .  A
C1388      H1393   1.083       .  S
C1389      C1390   1.414       .  A
C1390      O1394   1.371   1_554  S
C1391      C1396   1.406       .  A
C1391      C1400   1.402       .  A
O1392      H1408   0.992       .  S
O1394      H1405   0.991       .  S
C1396      C1397   1.402       .  A
C1396      O1401   1.372       .  S
C1397      C1398   1.408       .  A
C1397      H1402   1.083       .  S
C1398      C1399   1.414       .  A
C1399      C1400   1.400       .  A
C1399      O1403   1.372       .  S
C1400      H1404   1.084       .  S
O1401      H1406   0.991       .  S
O1403      H1407   0.992       .  S
C1409      C1410   1.400       .  A
C1409      C1414   1.397       .  A
C1409      H1419   1.084       .  S
C1410      C1415   1.478       .  S
C1410      C1411   1.408       .  A
C1411      C1412   1.400       .  A
C1411      O1416   1.373       .  S
C1412      C1413   1.404       .  A
C1412      H1417   1.083       .  S
C1413      C1414   1.415       .  A
C1414      O1418   1.372       .  S
C1415      C1420   1.408       .  A
C1415      C1424   1.401       .  A
O1416      H1432   0.992       .  S
O1418      H1429   0.992       .  S
C1420      C1421   1.398       .  A
C1420      O1425   1.371       .  S
C1421      C1422   1.404       .  A
C1421      H1426   1.083       .  S
C1422      C1423   1.413       .  A
C1423      C1424   1.395       .  A
C1423      O1427   1.372       .  S
C1424      H1428   1.084       .  S
O1425      H1430   0.991       .  S
O1427      H1431   0.992       .  S
C1433      C1434   1.404       .  A
C1433      C1438   1.406       .  A
C1433      H1443   1.083       .  S
C1434      C1439   1.484       .  S
C1434      C1435   1.405       .  A
C1435      C1436   1.399       .  A
C1435      O1440   1.372       .  S
C1436      C1437   1.409       .  A
C1436      H1441   1.083       .  S
C1437      C1438   1.414       .  A
C1438      O1442   1.371       .  S
C1439      C1444   1.407       .  A
C1439      C1448   1.400       .  A
O1440      H1456   0.992       .  S
O1442      H1453   0.992       .  S
C1444      C1445   1.405       .  A
C1444      O1449   1.371       .  S
C1445      C1446   1.409       .  A
C1445      H1450   1.083       .  S
C1446      C1447   1.416       .  A
C1447      C1448   1.400       .  A
C1447      O1451   1.371       .  S
C1448      H1452   1.084       .  S
O1449      H1454   0.992       .  S
O1451      H1455   0.992       .  S
C1457      C1458   1.400       .  A
C1457      C1462   1.397       .  A
C1457      H1467   1.084       .  S
C1458      C1463   1.477   1_556  S
C1458      C1459   1.405       .  A
C1459      C1460   1.402       .  A
C1459      O1464   1.372   1_556  S
C1460      C1461   1.409       .  A
C1460      H1465   1.083       .  S
C1461      C1462   1.414       .  A
C1462      O1466   1.372       .  S
C1463      C1468   1.407   1_554  A
C1463      C1472   1.399       .  A
O1464      H1480   0.992   1_554  S
O1466      H1477   0.991       .  S
C1468      C1469   1.401   1_556  A
C1468      O1473   1.372       .  S
C1469      C1470   1.408       .  A
C1469      H1474   1.083       .  S
C1470      C1471   1.415       .  A
C1471      C1472   1.397       .  A
C1471      O1475   1.371       .  S
C1472      H1476   1.084       .  S
O1473      H1478   0.991       .  S
O1475      H1479   0.992       .  S
C1481      C1482   1.399       .  A
C1481      C1486   1.400       .  A
C1481      H1491   1.084       .  S
C1482      C1487   1.476   1_556  S
C1482      C1483   1.406       .  A
C1483      C1484   1.399       .  A
C1483      O1488   1.373       .  S
C1484      C1485   1.405       .  A
C1484      H1489   1.083       .  S
C1485      C1486   1.415       .  A
C1486      O1490   1.372       .  S
C1487      C1492   1.407   1_554  A
C1487      C1496   1.402       .  A
O1488      H1504   0.991       .  S
O1490      H1501   0.992       .  S
C1492      C1493   1.399   1_556  A
C1492      O1497   1.373       .  S
C1493      C1494   1.402       .  A
C1493      H1498   1.084   1_564  S
C1494      C1495   1.410       .  A
C1495      C1496   1.401       .  A
C1495      O1499   1.372       .  S
C1496      H1500   1.084       .  S
O1497      H1502   0.991       .  S
O1499      H1503   0.991       .  S
C1505      C1506   1.398       .  A
C1505      C1510   1.398       .  A
C1505      H1515   1.084       .  S
C1506      C1511   1.470       .  S
C1506      C1507   1.403       .  A
C1507      C1508   1.399       .  A
C1507      O1512   1.371       .  S
C1508      C1509   1.407       .  A
C1508      H1513   1.083       .  S
C1509      C1510   1.416       .  A
C1510      O1514   1.372       .  S
C1511      C1516   1.403       .  A
C1511      C1520   1.399       .  A
O1512      H1528   0.991       .  S
O1514      H1525   0.992       .  S
C1516      C1517   1.397       .  A
C1516      O1521   1.372       .  S
C1517      C1518   1.408   1_565  A
C1517      H1522   1.083       .  S
C1518      C1519   1.415       .  A
C1519      C1520   1.399   1_545  A
C1519      O1523   1.372       .  S
C1520      H1524   1.084       .  S
O1521      H1526   0.992       .  S
O1523      H1527   0.992       .  S
C1529      C1530   1.404       .  A
C1529      C1534   1.399       .  A
C1529      H1539   1.084       .  S
C1530      C1535   1.482       .  S
C1530      C1531   1.408       .  A
C1531      C1532   1.398       .  A
C1531      O1536   1.373       .  S
C1532      C1533   1.406       .  A
C1532      H1537   1.084       .  S
C1533      C1534   1.411       .  A
C1534      O1538   1.372       .  S
C1535      C1540   1.407       .  A
C1535      C1544   1.403       .  A
O1536      H1552   0.992       .  S
O1538      H1549   0.992       .  S
C1540      C1541   1.399       .  A
C1540      O1545   1.372       .  S
C1541      C1542   1.408       .  A
C1541      H1546   1.083       .  S
C1542      C1543   1.412       .  A
C1543      C1544   1.398       .  A
C1543      O1547   1.372       .  S
C1544      H1548   1.084       .  S
O1545      H1550   0.991       .  S
O1547      H1551   0.992       .  S
C1553      C1554   1.399       .  A
C1553      C1558   1.398       .  A
C1553      H1563   1.084       .  S
C1554      C1559   1.474       .  S
C1554      C1555   1.405       .  A
C1555      C1556   1.398       .  A
C1555      O1560   1.372       .  S
C1556      C1557   1.408       .  A
C1556      H1561   1.083       .  S
C1557      C1558   1.415       .  A
C1558      O1562   1.371       .  S
C1559      C1564   1.406   1_556  A
C1559      C1568   1.401       .  A
O1560      H1576   0.992       .  S
O1562      H1573   0.991       .  S
C1564      C1565   1.399       .  A
C1564      O1569   1.372       .  S
C1565      C1566   1.405       .  A
C1565      H1570   1.084       .  S
C1566      C1567   1.411   1_554  A
C1567      C1568   1.397       .  A
C1567      O1571   1.372       .  S
C1568      H1572   1.084       .  S
O1569      H1574   0.992       .  S
O1571      H1575   0.992       .  S
C1577      C1578   1.401       .  A
C1577      C1582   1.399       .  A
C1577      H1587   1.084       .  S
C1578      C1583   1.479       .  S
C1578      C1579   1.409       .  A
C1579      C1580   1.399       .  A
C1579      O1584   1.373       .  S
C1580      C1581   1.404       .  A
C1580      H1585   1.084       .  S
C1581      C1582   1.413       .  A
C1582      O1586   1.372       .  S
C1583      C1588   1.407       .  A
C1583      C1592   1.404   1_556  A
O1584      H1600   0.992       .  S
O1586      H1597   0.992       .  S
C1588      C1589   1.394       .  A
C1588      O1593   1.372       .  S
C1589      C1590   1.405   1_556  A
C1589      H1594   1.084       .  S
C1590      C1591   1.410       .  A
C1591      C1592   1.402       .  A
C1591      O1595   1.371       .  S
C1592      H1596   1.084       .  S
O1593      H1598   0.991       .  S
O1595      H1599   0.992       .  S
C1601      C1602   1.402       .  A
C1601      C1606   1.398       .  A
C1601      H1611   1.084       .  S
C1602      C1607   1.476       .  S
C1602      C1603   1.405       .  A
C1603      C1604   1.399       .  A
C1603      O1608   1.371       .  S
C1604      C1605   1.406       .  A
C1604      H1609   1.083       .  S
C1605      C1606   1.410       .  A
C1606      O1610   1.372       .  S
C1607      C1612   1.403       .  A
C1607      C1616   1.403       .  A
O1608      H1624   0.992       .  S
O1610      H1621   0.992       .  S
C1612      C1613   1.397       .  A
C1612      O1617   1.372       .  S
C1613      C1614   1.408       .  A
C1613      H1618   1.083       .  S
C1614      C1615   1.412       .  A
C1615      C1616   1.400       .  A
C1615      O1619   1.371       .  S
C1616      H1620   1.084       .  S
O1617      H1622   0.991       .  S
O1619      H1623   0.992       .  S
C1625      C1626   1.400       .  A
C1625      C1630   1.394       .  A
C1625      H1635   1.084       .  S
C1626      C1631   1.477       .  S
C1626      C1627   1.406       .  A
C1627      C1628   1.402       .  A
C1627      O1632   1.372       .  S
C1628      C1629   1.408       .  A
C1628      H1633   1.083       .  S
C1629      C1630   1.413       .  A
C1630      O1634   1.372       .  S
C1631      C1636   1.407       .  A
C1631      C1640   1.402       .  A
O1632      H1648   0.991       .  S
O1634      H1645   0.992       .  S
C1636      C1637   1.400       .  A
C1636      O1641   1.372       .  S
C1637      C1638   1.407       .  A
C1637      H1642   1.084       .  S
C1638      C1639   1.409       .  A
C1639      C1640   1.396       .  A
C1639      O1643   1.372       .  S
C1640      H1644   1.084       .  S
O1641      H1646   0.991       .  S
O1643      H1647   0.991       .  S
C1649      C1650   1.400       .  A
C1649      C1654   1.398       .  A
C1649      H1659   1.084       .  S
C1650      C1655   1.469       .  S
C1650      C1651   1.404       .  A
C1651      C1652   1.398       .  A
C1651      O1656   1.372       .  S
C1652      C1653   1.405       .  A
C1652      H1657   1.084       .  S
C1653      C1654   1.411       .  A
C1654      O1658   1.371       .  S
C1655      C1660   1.405       .  A
C1655      C1664   1.400       .  A
O1656      H1672   0.992       .  S
O1658      H1669   0.992       .  S
C1660      C1661   1.395       .  A
C1660      O1665   1.372       .  S
C1661      C1662   1.404       .  A
C1661      H1666   1.084       .  S
C1662      C1663   1.411       .  A
C1663      C1664   1.400       .  A
C1663      O1667   1.371       .  S
C1664      H1668   1.083       .  S
O1665      H1670   0.992       .  S
O1667      H1671   0.991       .  S
C1673      C1674   1.401       .  A
C1673      C1678   1.396       .  A
C1673      H1683   1.084       .  S
C1674      C1679   1.473       .  S
C1674      C1675   1.405       .  A
C1675      C1676   1.398       .  A
C1675      O1680   1.371       .  S
C1676      C1677   1.406       .  A
C1676      H1681   1.083       .  S
C1677      C1678   1.411       .  A
C1678      O1682   1.372       .  S
C1679      C1684   1.403       .  A
C1679      C1688   1.401       .  A
O1680      H1696   0.991       .  S
O1682      H1693   0.991       .  S
C1684      C1685   1.398       .  A
C1684      O1689   1.372       .  S
C1685      C1686   1.408       .  A
C1685      H1690   1.083       .  S
C1686      C1687   1.413       .  A
C1687      C1688   1.398       .  A
C1687      O1691   1.372       .  S
C1688      H1692   1.084       .  S
O1689      H1694   0.991       .  S
O1691      H1695   0.992       .  S
C1697      C1698   1.401       .  A
C1697      C1702   1.403       .  A
C1697      H1707   1.084       .  S
C1698      C1703   1.477       .  S
C1698      C1699   1.403       .  A
C1699      C1700   1.399       .  A
C1699      O1704   1.372       .  S
C1700      C1701   1.409       .  A
C1700      H1705   1.083       .  S
C1701      C1702   1.414       .  A
C1702      O1706   1.371       .  S
C1703      C1708   1.405       .  A
C1703      C1712   1.399       .  A
O1704      H1720   0.991       .  S
O1706      H1717   0.991       .  S
C1708      C1709   1.401       .  A
C1708      O1713   1.372       .  S
C1709      C1710   1.408       .  A
C1709      H1714   1.083       .  S
C1710      C1711   1.417       .  A
C1711      C1712   1.401       .  A
C1711      O1715   1.371       .  S
C1712      H1716   1.084       .  S
O1713      H1718   0.990       .  S
O1715      H1719   0.991       .  S
C1721      C1722   1.401       .  A
C1721      C1726   1.398       .  A
C1721      H1731   1.084       .  S
C1722      C1727   1.475       .  S
C1722      C1723   1.405       .  A
C1723      C1724   1.402       .  A
C1723      O1728   1.372       .  S
C1724      C1725   1.407       .  A
C1724      H1729   1.084       .  S
C1725      C1726   1.409       .  A
C1726      O1730   1.372       .  S
C1727      C1732   1.404       .  A
C1727      C1736   1.402       .  A
O1728      H1744   0.991       .  S
O1730      H1741   0.993       .  S
C1732      C1733   1.400       .  A
C1732      O1737   1.371       .  S
C1733      C1734   1.407   1_655  A
C1733      H1738   1.083       .  S
C1734      C1735   1.410       .  A
C1735      C1736   1.399   1_455  A
C1735      O1739   1.372       .  S
C1736      H1740   1.084       .  S
O1737      H1742   0.992       .  S
O1739      H1743   0.992       .  S
C1745      C1746   1.400       .  A
C1745      C1750   1.402       .  A
C1745      H1755   1.084       .  S
C1746      C1751   1.477       .  S
C1746      C1747   1.404       .  A
C1747      C1748   1.400       .  A
C1747      O1752   1.372       .  S
C1748      C1749   1.408       .  A
C1748      H1753   1.083       .  S
C1749      C1750   1.416       .  A
C1750      O1754   1.371       .  S
C1751      C1756   1.405       .  A
C1751      C1760   1.400       .  A
O1752      H1768   0.992       .  S
O1754      H1765   0.992       .  S
C1756      C1757   1.400       .  A
C1756      O1761   1.372       .  S
C1757      C1758   1.406       .  A
C1757      H1762   1.083       .  S
C1758      C1759   1.416       .  A
C1759      C1760   1.401       .  A
C1759      O1763   1.372       .  S
C1760      H1764   1.084       .  S
O1761      H1766   0.991       .  S
O1763      H1767   0.992       .  S
C1769      C1770   1.399       .  A
C1769      C1774   1.399       .  A
C1769      H1779   1.084       .  S
C1770      C1775   1.475       .  S
C1770      C1771   1.407       .  A
C1771      C1772   1.395       .  A
C1771      O1776   1.372       .  S
C1772      C1773   1.405       .  A
C1772      H1777   1.083       .  S
C1773      C1774   1.416       .  A
C1774      O1778   1.372       .  S
C1775      C1780   1.407       .  A
C1775      C1784   1.404       .  A
O1776      H1792   0.992       .  S
O1778      H1789   0.992       .  S
C1780      C1781   1.398       .  A
C1780      O1785   1.372       .  S
C1781      C1782   1.403       .  A
C1781      H1786   1.084       .  S
C1782      C1783   1.404       .  A
C1783      C1784   1.395       .  A
C1783      O1787   1.371       .  S
C1784      H1788   1.084       .  S
O1785      H1790   0.991       .  S
O1787      H1791   0.992       .  S
C1793      C1794   1.399       .  A
C1793      C1798   1.393       .  A
C1793      H1803   1.084   1_455  S
C1794      C1799   1.470   1_455  S
C1794      C1795   1.403       .  A
C1795      C1796   1.399       .  A
C1795      O1800   1.371       .  S
C1796      C1797   1.409       .  A
C1796      H1801   1.083       .  S
C1797      C1798   1.413       .  A
C1798      O1802   1.371       .  S
C1799      C1804   1.402       .  A
C1799      C1808   1.402       .  A
O1800      H1816   0.992       .  S
O1802      H1813   0.992       .  S
C1804      C1805   1.394       .  A
C1804      O1809   1.373       .  S
C1805      C1806   1.408       .  A
C1805      H1810   1.083       .  S
C1806      C1807   1.412       .  A
C1807      C1808   1.400       .  A
C1807      O1811   1.371       .  S
C1808      H1812   1.084   1_655  S
O1809      H1814   0.991       .  S
O1811      H1815   0.992       .  S
C1817      C1818   1.404       .  A
C1817      C1822   1.400       .  A
C1817      H1827   1.084       .  S
C1818      C1823   1.485   1_565  S
C1818      C1819   1.409       .  A
C1819      C1820   1.403       .  A
C1819      O1824   1.373       .  S
C1820      C1821   1.406       .  A
C1820      H1825   1.084       .  S
C1821      C1822   1.409       .  A
C1822      O1826   1.372       .  S
C1823      C1828   1.408       .  A
C1823      C1832   1.404       .  A
O1824      H1840   0.991       .  S
O1826      H1837   0.991       .  S
C1828      C1829   1.400       .  A
C1828      O1833   1.372       .  S
C1829      C1830   1.407       .  A
C1829      H1834   1.083       .  S
C1830      C1831   1.413       .  A
C1831      C1832   1.401       .  A
C1831      O1835   1.371       .  S
C1832      H1836   1.084       .  S
O1833      H1838   0.991   1_545  S
O1835      H1839   0.991       .  S
C1841      C1842   1.402       .  A
C1841      C1846   1.395       .  A
C1841      H1851   1.084       .  S
C1842      C1847   1.480       .  S
C1842      C1843   1.406       .  A
C1843      C1844   1.402       .  A
C1843      O1848   1.372       .  S
C1844      C1845   1.409       .  A
C1844      H1849   1.083       .  S
C1845      C1846   1.412       .  A
C1846      O1850   1.372       .  S
C1847      C1852   1.412       .  A
C1847      C1856   1.401       .  A
O1848      H1864   0.991       .  S
O1850      H1861   0.992       .  S
C1852      C1853   1.404       .  A
C1852      O1857   1.371       .  S
C1853      C1854   1.401       .  A
C1853      H1858   1.083       .  S
C1854      C1855   1.406       .  A
C1855      C1856   1.392       .  A
C1855      O1859   1.373       .  S
C1856      H1860   1.084       .  S
O1857      H1862   0.991       .  S
O1859      H1863   0.992       .  S
C1865      C1866   1.402       .  A
C1865      C1870   1.405       .  A
C1865      H1875   1.084       .  S
C1866      C1871   1.480       .  S
C1866      C1867   1.404       .  A
C1867      C1868   1.399       .  A
C1867      O1872   1.372       .  S
C1868      C1869   1.408       .  A
C1868      H1873   1.083       .  S
C1869      C1870   1.415       .  A
C1870      O1874   1.371       .  S
C1871      C1876   1.404       .  A
C1871      C1880   1.403       .  A
O1872      H1888   0.992       .  S
O1874      H1885   0.992       .  S
C1876      C1877   1.397       .  A
C1876      O1881   1.372       .  S
C1877      C1878   1.407       .  A
C1877      H1882   1.083       .  S
C1878      C1879   1.414       .  A
C1879      C1880   1.405       .  A
C1879      O1883   1.371       .  S
C1880      H1884   1.084       .  S
O1881      H1886   0.991       .  S
O1883      H1887   0.992       .  S
C1889      C1890   1.400       .  A
C1889      C1894   1.399       .  A
C1889      H1899   1.084       .  S
C1890      C1895   1.470       .  S
C1890      C1891   1.404       .  A
C1891      C1892   1.395       .  A
C1891      O1896   1.372       .  S
C1892      C1893   1.407       .  A
C1892      H1897   1.083       .  S
C1893      C1894   1.413       .  A
C1894      O1898   1.371       .  S
C1895      C1900   1.404       .  A
C1895      C1904   1.398       .  A
O1896      H1912   0.992       .  S
O1898      H1909   0.991       .  S
C1900      C1901   1.399       .  A
C1900      O1905   1.372       .  S
C1901      C1902   1.408       .  A
C1901      H1906   1.083       .  S
C1902      C1903   1.415       .  A
C1903      C1904   1.395       .  A
C1903      O1907   1.371       .  S
C1904      H1908   1.084       .  S
O1905      H1910   0.990       .  S
O1907      H1911   0.992       .  S
C1913      C1914   1.402       .  A
C1913      C1918   1.397       .  A
C1913      H1923   1.084       .  S
C1914      C1919   1.472       .  S
C1914      C1915   1.406       .  A
C1915      C1916   1.397       .  A
C1915      O1920   1.373       .  S
C1916      C1917   1.403       .  A
C1916      H1921   1.084       .  S
C1917      C1918   1.409       .  A
C1918      O1922   1.372       .  S
C1919      C1924   1.408   1_455  A
C1919      C1928   1.398   1_565  A
O1920      H1936   0.992       .  S
O1922      H1933   0.991       .  S
C1924      C1925   1.399       .  A
C1924      O1929   1.373       .  S
C1925      C1926   1.404   1_565  A
C1925      H1930   1.084       .  S
C1926      C1927   1.415   1_655  A
C1927      C1928   1.395       .  A
C1927      O1931   1.372       .  S
C1928      H1932   1.084       .  S
O1929      H1934   0.992       .  S
O1931      H1935   0.992   1_455  S
C1937      C1938   1.400       .  A
C1937      C1942   1.399       .  A
C1937      H1947   1.084       .  S
C1938      C1943   1.471       .  S
C1938      C1939   1.404       .  A
C1939      C1940   1.400       .  A
C1939      O1944   1.372       .  S
C1940      C1941   1.406       .  A
C1940      H1945   1.083       .  S
C1941      C1942   1.412       .  A
C1942      O1946   1.372       .  S
C1943      C1948   1.401       .  A
C1943      C1952   1.402       .  A
O1944      H1960   0.991       .  S
O1946      H1957   0.992       .  S
C1948      C1949   1.393       .  A
C1948      O1953   1.372       .  S
C1949      C1950   1.407       .  A
C1949      H1954   1.083       .  S
C1950      C1951   1.414       .  A
C1951      C1952   1.404       .  A
C1951      O1955   1.371       .  S
C1952      H1956   1.083       .  S
O1953      H1958   0.991       .  S
O1955      H1959   0.992       .  S
C1961      C1962   1.400   1_455  A
C1961      C1966   1.397       .  A
C1961      H1971   1.084       .  S
C1962      C1967   1.477       .  S
C1962      C1963   1.409       .  A
C1963      C1964   1.399   1_655  A
C1963      O1968   1.372       .  S
C1964      C1965   1.404       .  A
C1964      H1969   1.083       .  S
C1965      C1966   1.413       .  A
C1966      O1970   1.372       .  S
C1967      C1972   1.407       .  A
C1967      C1976   1.402       .  A
O1968      H1984   0.992       .  S
O1970      H1981   0.992       .  S
C1972      C1973   1.396       .  A
C1972      O1977   1.372       .  S
C1973      C1974   1.405       .  A
C1973      H1978   1.084       .  S
C1974      C1975   1.411       .  A
C1975      C1976   1.400       .  A
C1975      O1979   1.371       .  S
C1976      H1980   1.084       .  S
O1977      H1982   0.992   1_655  S
O1979      H1983   0.991       .  S
