geometry optimzed in LAMMPS
_audit_creation_date              2020-12-01 
_audit_creation_method            'lammps2cif' 
_symmetry_space_group_name_H-M    'P1' 
_symmetry_Int_Tables_number       1 
_symmetry_cell_setting            triclinic 
loop_ 
_symmetry_equiv_pos_as_xyz 
  x,y,z 
_cell_length_a                    33.8872338 
_cell_length_b                    34.15754873243924 
_cell_length_c                    66.72400656460134 
_cell_angle_alpha                 90.30634629809867 
_cell_angle_beta                  89.99960548831916 
_cell_angle_gamma                 90.16064067367658 
loop_ 
_atom_site_label 
_atom_site_type_symbol 
_atom_site_fract_x 
_atom_site_fract_y 
_atom_site_fract_z 
_atom_site_charge 
O1          O  0.81432633  0.69573205  0.78478977    -0.57000
C2          C  0.87297003  0.63680977  0.82889827     0.75600
O3          O  0.90020581  0.60362347  0.76642078    -0.58200
C4          C  0.82177099  0.70965498  0.76762819     0.75600
C5          C  0.94553878  0.70496016  0.78521215     0.78000
Cd6        Cd  0.87563474  0.65710840  0.78701559     1.37500
O7          O  0.84747762  0.65901725  0.82108807    -0.57000
O8          O  0.91550690  0.71462825  0.79531030    -0.55800
C9          C  0.86853513  0.58403365  0.76546883     0.78000
O10         O  0.94390075  0.67213108  0.77636094    -0.58200
O11         O  0.89855709  0.62278536  0.81710810    -0.56600
O12         O  0.85338930  0.69822990  0.75946493    -0.56600
O13         O  0.83889784  0.59882358  0.77421060    -0.55800
O14         O  0.21374478  0.82708411  0.77921338    -0.57000
C15         C  0.15021436  0.87439006  0.82549657     0.75600
O16         O  0.12107423  0.90933748  0.76079472    -0.58200
C17         C  0.20675552  0.81215480  0.76211326     0.75600
C18         C  0.07935113  0.80960755  0.78087056     0.78000
Cd19       Cd  0.14840909  0.85860301  0.78268774     1.37500
O20         O  0.17027977  0.84689043  0.81785854    -0.57000
O21         O  0.11376770  0.79587396  0.78233997    -0.55800
C22         C  0.15079127  0.93183026  0.76151534     0.78000
O23         O  0.07666723  0.84646744  0.77975737    -0.58200
O24         O  0.13133467  0.89527048  0.81327213    -0.56600
O25         O  0.17376255  0.82042765  0.75436032    -0.56600
O26         O  0.17995277  0.91981649  0.77160507    -0.55800
O27         O  0.62415507  0.90727584  0.72717030    -0.57000
C28         C  0.58491985  0.80574648  0.70731454     0.75600
O29         O  0.67443410  0.84600010  0.67098289    -0.58200
C30         C  0.65404555  0.92956426  0.72737094     0.75600
C31         C  0.71205568  0.81253852  0.72744383     0.78000
Cd32       Cd  0.65301680  0.85613501  0.70607044     1.37500
O33         O  0.58433261  0.83991476  0.71473839    -0.57000
O34         O  0.67769901  0.81822240  0.73419754    -0.55800
C35         C  0.65269824  0.87224628  0.66351333     0.78000
O36         O  0.71974728  0.82786371  0.71061334    -0.58200
O37         O  0.61726392  0.79488691  0.69969001    -0.56600
O38         O  0.68392496  0.91770015  0.71769301    -0.56600
O39         O  0.63329907  0.89264574  0.67589450    -0.55800
O40         O  0.39376118  0.61344923  0.73246364    -0.57000
C41         C  0.44784588  0.70486456  0.70478765     0.75600
O42         O  0.35306516  0.66738621  0.66983131    -0.58200
C43         C  0.37138457  0.58594392  0.72658639     0.75600
C44         C  0.31870112  0.70770072  0.72370918     0.78000
Cd45       Cd  0.37681927  0.65851443  0.70466531     1.37500
O46         O  0.44926023  0.66811738  0.70702520    -0.57000
O47         O  0.35195577  0.70057997  0.73142453    -0.55800
C48         C  0.37372336  0.64001227  0.66244856     0.78000
O49         O  0.31123194  0.69049661  0.70723378    -0.58200
O50         O  0.41405476  0.71948012  0.70226169    -0.56600
O51         O  0.35065016  0.59272111  0.71124221    -0.56600
O52         O  0.39455516  0.62099854  0.67470887    -0.55800
O53         O  0.84355507  0.35133418  0.67141806    -0.57000
C54         C  0.81583776  0.30525504  0.72493230     0.75600
O55         O  0.92937801  0.32852136  0.72213173    -0.58200
C56         C  0.86807124  0.37472349  0.66348925     0.75600
C57         C  0.86923752  0.43257731  0.72579914     0.78000
Cd58       Cd  0.87124083  0.35733281  0.70572932     1.37500
O59         O  0.80712900  0.32230542  0.70869024    -0.57000
O60         O  0.83799230  0.41623406  0.71953432    -0.55800
C61         C  0.94062082  0.30935331  0.70690392     0.78000
O62         O  0.90090962  0.41390247  0.72289980    -0.58200
O63         O  0.84951988  0.31287337  0.73205719    -0.56600
O64         O  0.89231117  0.39106511  0.67531701    -0.56600
O65         O  0.92029571  0.31326414  0.69116766    -0.55800
O66         O  0.21082106  0.19538058  0.70819478    -0.57000
C67         C  0.14676082  0.13923308  0.66414051     0.75600
O68         O  0.11654076  0.10502735  0.72390413    -0.58200
C69         C  0.20482507  0.21028060  0.72535977     0.75600
C70         C  0.07682932  0.20827344  0.70702725     0.78000
Cd71       Cd  0.14629572  0.16034863  0.70618687     1.37500
O72         O  0.16794676  0.16685705  0.67103316    -0.57000
O73         O  0.08522859  0.18635935  0.72165446    -0.55800
C74         C  0.14789278  0.08512941  0.72509336     0.78000
O75         O  0.10048186  0.20765849  0.69241318    -0.58200
O76         O  0.12723634  0.12000695  0.67691816    -0.56600
O77         O  0.17260989  0.20106369  0.73365480    -0.56600
O78         O  0.17888014  0.10073089  0.71808745    -0.55800
O79         O  0.38966106  0.40650615  0.75727656    -0.57000
C80         C  0.44692958  0.31048012  0.78127410     0.75600
O81         O  0.35282129  0.34939812  0.81918827    -0.58200
C82         C  0.37308277  0.43534329  0.76571734     0.75600
C83         C  0.31538417  0.31538474  0.76510905     0.78000
Cd84       Cd  0.37766354  0.35929292  0.78460289     1.37500
O85         O  0.44906918  0.34726886  0.77934771    -0.57000
O86         O  0.34729520  0.32456196  0.75649552    -0.55800
C87         C  0.37860091  0.37110299  0.82744732     0.78000
O88         O  0.31105889  0.32824892  0.78284295    -0.58200
O89         O  0.41295986  0.29659672  0.78451256    -0.56600
O90         O  0.35819734  0.42908227  0.78277879    -0.56600
O91         O  0.40305100  0.38738021  0.81583113    -0.55800
O92         O  0.62091484  0.09846157  0.76988557    -0.57000
C93         C  0.58122517  0.20643754  0.78260195     0.75600
O94         O  0.67150450  0.16404717  0.82232098    -0.58200
C95         C  0.65328790  0.08098075  0.76687982     0.75600
C96         C  0.70616406  0.20144506  0.76525131     0.78000
Cd97       Cd  0.64879115  0.15579548  0.78681083     1.37500
O98         O  0.58119731  0.17198745  0.77550083    -0.57000
O99         O  0.67217406  0.19403859  0.75838018    -0.55800
C100        C  0.64916119  0.13773040  0.82942029     0.78000
O101        O  0.71437834  0.18648080  0.78211684    -0.58200
O102        O  0.61217504  0.21694363  0.79178123    -0.56600
O103        O  0.68409298  0.09861714  0.77280606    -0.56600
O104        O  0.62822008  0.11948484  0.81680459    -0.55800
O105        O  0.16004087  0.36876459  0.01692021    -0.57000
C106        C  0.06008927  0.32959634  0.03712715     0.75600
O107        O  0.10488685  0.41972657  0.07523240    -0.58200
C108        C  0.18273929  0.39818165  0.01643299     0.75600
C109        C  0.06232820  0.45411878  0.01944784     0.78000
Cd110      Cd  0.11063717  0.39698830  0.03961450     1.37500
O111        O  0.09645382  0.32765064  0.03291895    -0.57000
O112        O  0.06692775  0.41949216  0.01312835    -0.55800
C113        C  0.13088921  0.39675447  0.08200101     0.78000
O114        O  0.08123439  0.46323570  0.03523412    -0.58200
O115        O  0.04740715  0.36259018  0.04282287    -0.56600
O116        O  0.17168506  0.42782405  0.02642653    -0.56600
O117        O  0.14771287  0.37525683  0.06916745    -0.55800
O118        O  0.86441892  0.13440599  0.00611185    -0.57000
C119        C  0.95992548  0.19250088  0.03400809     0.75600
O120        O  0.91240717  0.09023887  0.06682808    -0.58200
C121        C  0.83572590  0.11716086  0.01443486     0.75600
C122        C  0.96056358  0.06578847  0.01321382     0.78000
Cd123      Cd  0.91195584  0.12280509  0.03374468     1.37500
O124        O  0.92422726  0.19372440  0.02839150    -0.57000
O125        O  0.95005796  0.09756558  0.00524799    -0.55800
C126        C  0.89504317  0.11797002  0.07594578     0.78000
O127        O  0.94762666  0.05963917  0.03075500    -0.58200
O128        O  0.97252180  0.15950037  0.03951415    -0.56600
O129        O  0.84248669  0.10238834  0.03139200    -0.56600
O130        O  0.88591235  0.14737596  0.06548031    -0.55800
O131        O  0.07756383  0.95961765  0.95580137    -0.57000
C132        C  0.12495479  0.88944532  0.91107432     0.75600
O133        O  0.15289369  0.87677883  0.98109265    -0.58200
C134        C  0.06255782  0.95372164  0.97295428     0.75600
C135        C  0.05825739  0.82503338  0.95575538     0.78000
Cd136      Cd  0.10805055  0.89279941  0.95341377     1.37500
O137        O  0.10910736  0.91951138  0.91887793    -0.57000
O138        O  0.04507778  0.85792552  0.95033645    -0.55800
C139        C  0.18311458  0.89294616  0.97371513     0.78000
O140        O  0.09454233  0.82366902  0.96017197    -0.58200
O141        O  0.13228088  0.86156048  0.92285745    -0.56600
O142        O  0.06968094  0.92083181  0.98066923    -0.56600
O143        O  0.17859551  0.90991513  0.95708618    -0.55800
O144        O  0.91345743  0.59039513  0.92220664    -0.57000
C145        C  0.95970348  0.56364689  0.97837040     0.75600
O146        O  0.92570457  0.68722130  0.96378259    -0.58200
C147        C  0.89208522  0.61650558  0.91433171     0.75600
C148        C  0.83680636  0.61368887  0.97779777     0.78000
Cd149      Cd  0.91091117  0.61824797  0.95668797     1.37500
O150        O  0.94238439  0.55405527  0.96220538    -0.57000
O151        O  0.85140769  0.58429197  0.96892932    -0.55800
C152        C  0.96069703  0.68621713  0.95712103     0.78000
O153        O  0.85694484  0.64491864  0.97715867    -0.58200
O154        O  0.95385674  0.59824259  0.98452678    -0.56600
O155        O  0.87850942  0.64208628  0.92617616    -0.56600
O156        O  0.97260671  0.65361639  0.95040774    -0.55800
O157        O  0.40754111  0.91080265  0.06878248    -0.57000
C158        C  0.45599361  0.94016993  0.01441403     0.75600
O159        O  0.42159183  0.81123939  0.02884588    -0.58200
C160        C  0.38751334  0.88338599  0.07659035     0.75600
C161        C  0.33409796  0.88621183  0.01341877     0.78000
Cd162      Cd  0.40813805  0.88170256  0.03447476     1.37500
O163        O  0.44503274  0.94443630  0.03246636    -0.57000
O164        O  0.34052394  0.90554505  0.02931125    -0.55800
C165        C  0.45706134  0.81293332  0.03476898     0.78000
O166        O  0.36199306  0.86489539  0.00712760    -0.58200
O167        O  0.44403540  0.90944503  0.00566726    -0.56600
O168        O  0.37672252  0.85625034  0.06482380    -0.56600
O169        O  0.46932320  0.84618688  0.04038287    -0.55800
O170        O  0.60644831  0.58366392  0.07161117    -0.57000
C171        C  0.56429998  0.55316326  0.01601945     0.75600
O172        O  0.59216669  0.67838883  0.02942325    -0.58200
C173        C  0.62995682  0.60832755  0.07935744     0.75600
C174        C  0.68432900  0.61083627  0.01682574     0.78000
Cd175      Cd  0.60986130  0.61083946  0.03734379     1.37500
O176        O  0.57876763  0.54622048  0.03314513    -0.57000
O177        O  0.67104845  0.58018056  0.02504536    -0.55800
C178        C  0.55751920  0.67671627  0.03643299     0.78000
O179        O  0.66258566  0.64083213  0.01768657    -0.58200
O180        O  0.57242615  0.58619567  0.00856127    -0.56600
O181        O  0.64473694  0.63308113  0.06752519    -0.56600
O182        O  0.54692953  0.64444569  0.04393914    -0.55800
O183        O  0.35251881  0.36370749  0.97462701    -0.57000
C184        C  0.45969509  0.32159534  0.96010487     0.75600
O185        O  0.40925242  0.41593486  0.92170052    -0.58200
C186        C  0.33341994  0.39542004  0.97544697     0.75600
C187        C  0.45815225  0.44619587  0.97521264     0.78000
Cd188      Cd  0.40919561  0.38878957  0.95592925     1.37500
O189        O  0.42393217  0.32102340  0.96557381    -0.57000
O190        O  0.44554573  0.41604123  0.98415808    -0.55800
C191        C  0.39292777  0.38652678  0.91354387     0.78000
O192        O  0.44681535  0.45059714  0.95726355    -0.58200
O193        O  0.47237656  0.35365263  0.95319305    -0.56600
O194        O  0.34970770  0.42484528  0.96747648    -0.56600
O195        O  0.38338729  0.35895513  0.92510417    -0.55800
O196        O  0.59585297  0.18495946  0.96433105    -0.57000
C197        C  0.68234516  0.11076164  0.97666631     0.75600
O198        O  0.56292049  0.05531626  0.95706678    -0.58200
C199        C  0.55924671  0.18440851  0.96062456     0.75600
C200        C  0.62434838  0.11756598  0.91480012     0.78000
Cd201      Cd  0.60630354  0.11460784  0.95724351     1.37500
O202        O  0.65318877  0.12752447  0.98481506    -0.57000
O203        O  0.62807985  0.14655737  0.92649821    -0.55800
C204        C  0.55860496  0.05408184  0.97593685     0.78000
O205        O  0.61174010  0.08615150  0.92266852    -0.58200
O206        O  0.67605472  0.09468846  0.95984127    -0.56600
O207        O  0.54464362  0.15152456  0.95591682    -0.56600
O208        O  0.57737846  0.07967523  0.98584452    -0.55800
O209        O  0.36374270  0.62033010  0.50783472    -0.57000
C210        C  0.46031125  0.67344111  0.53229366     0.75600
O211        O  0.40849381  0.58085801  0.56997254    -0.58200
C212        C  0.33577988  0.59953571  0.51448541     0.75600
C213        C  0.45855202  0.54784100  0.51554575     0.78000
Cd214      Cd  0.41023295  0.60578114  0.53505429     1.37500
O215        O  0.42400739  0.67509428  0.52788148    -0.57000
O216        O  0.44371506  0.57680760  0.50665309    -0.55800
C217        C  0.39225842  0.61114091  0.57733354     0.78000
O218        O  0.44937771  0.54398532  0.53388198    -0.58200
O219        O  0.47311673  0.64042508  0.53771038    -0.56600
O220        O  0.34250637  0.58082945  0.53043722    -0.56600
O221        O  0.38366550  0.63786389  0.56504035    -0.55800
O222        O  0.65750999  0.86763747  0.50671039    -0.57000
C223        C  0.56351645  0.80841380  0.53364717     0.75600
O224        O  0.60941017  0.90734554  0.56931691    -0.58200
C225        C  0.68707352  0.88343639  0.51505815     0.75600
C226        C  0.56369969  0.93715043  0.51643379     0.78000
Cd227      Cd  0.61167376  0.87792774  0.53528047     1.37500
O228        O  0.60023837  0.80693641  0.53025919    -0.57000
O229        O  0.57442213  0.90626424  0.50748341    -0.55800
C230        C  0.62822071  0.87983850  0.57768473     0.78000
O231        O  0.57643788  0.94163026  0.53417881    -0.58200
O232        O  0.54962277  0.84175688  0.53779734    -0.56600
O233        O  0.68162456  0.89726006  0.53243291    -0.56600
O234        O  0.63900326  0.85196624  0.56640993    -0.55800
O235        O  0.57686472  0.44876173  0.45669599    -0.57000
C236        C  0.62950571  0.38755061  0.41005791     0.75600
O237        O  0.66340762  0.35834535  0.47312600    -0.58200
C238        C  0.56495214  0.44187676  0.47435709     0.75600
C239        C  0.56245011  0.31676845  0.45536493     0.78000
Cd240      Cd  0.61123233  0.38546867  0.45252517     1.37500
O241        O  0.64762915  0.36583726  0.42222586    -0.57000
O242        O  0.54915806  0.34903274  0.44912073    -0.55800
C243        C  0.68512798  0.38849446  0.47321776     0.78000
O244        O  0.59855615  0.31631318  0.46012224    -0.58200
O245        O  0.60345164  0.40962908  0.41762507    -0.56600
O246        O  0.57595403  0.40986529  0.48190552    -0.56600
O247        O  0.67223707  0.41801575  0.46387609    -0.55800
O248        O  0.44538904  0.04500500  0.46184578    -0.57000
C249        C  0.39897626  0.10939237  0.41624351     0.75600
O250        O  0.36861986  0.12467749  0.48727238    -0.58200
C251        C  0.46173481  0.05166830  0.47863181     0.75600
C252        C  0.46201382  0.18018401  0.45941107     0.78000
Cd253      Cd  0.41421937  0.11064594  0.45901592     1.37500
O254        O  0.41709734  0.08146633  0.42463812    -0.57000
O255        O  0.47590859  0.14686824  0.45515928    -0.55800
C256        C  0.33887674  0.10794865  0.47958817     0.78000
O257        O  0.42576562  0.18144619  0.46395377    -0.58200
O258        O  0.38786936  0.13690263  0.42766464    -0.56600
O259        O  0.45513412  0.08490553  0.48631172    -0.56600
O260        O  0.34422480  0.09187293  0.46269824    -0.55800
O261        O  0.86550551  0.86270899  0.48114341    -0.57000
C262        C  0.96169633  0.81362109  0.45577664     0.75600
O263        O  0.91701857  0.91196018  0.42158327    -0.58200
C264        C  0.83886939  0.88647074  0.47594021     0.75600
C265        C  0.96104737  0.94121753  0.47644982     0.78000
Cd266      Cd  0.91368487  0.88320961  0.45570763     1.37500
O267        O  0.92529332  0.81219357  0.45993759    -0.57000
O268        O  0.94989011  0.90982265  0.48468201    -0.55800
C269        C  0.89443067  0.88655817  0.41370921     0.78000
O270        O  0.94919940  0.94646922  0.45864447    -0.58200
O271        O  0.97536773  0.84693297  0.45136360    -0.56600
O272        O  0.84725719  0.90954564  0.46179524    -0.56600
O273        O  0.88068734  0.86088906  0.42537829    -0.55800
O274        O  0.15649433  0.62098870  0.48190067    -0.57000
C275        C  0.06033117  0.67561059  0.45560827     0.75600
O276        O  0.11325819  0.57749421  0.42012990    -0.58200
C277        C  0.18493321  0.60186602  0.47447435     0.75600
C278        C  0.06232392  0.54896280  0.47359284     0.78000
Cd279      Cd  0.11008572  0.60733870  0.45412091     1.37500
O280        O  0.09603589  0.67702262  0.46119129    -0.57000
O281        O  0.08017397  0.57575857  0.48308253    -0.55800
C282        C  0.13031668  0.60662760  0.41213488     0.78000
O283        O  0.06772723  0.54796373  0.45479773    -0.58200
O284        O  0.04806094  0.64279646  0.44938033    -0.56600
O285        O  0.17863013  0.58493615  0.45787523    -0.56600
O286        O  0.13861827  0.63495381  0.42369944    -0.55800
O287        O  0.95056877  0.44595392  0.53317831    -0.57000
C288        C  0.88859527  0.39136613  0.57785177     0.75600
O289        O  0.85477104  0.35974671  0.51607012    -0.58200
C290        C  0.95525009  0.44390639  0.51434658     0.75600
C291        C  0.95963242  0.32098990  0.53299408     0.78000
Cd292      Cd  0.90835894  0.38780859  0.53565138     1.37500
O293        O  0.90847679  0.41822652  0.56957603    -0.57000
O294        O  0.97212250  0.35430573  0.53835159    -0.55800
C295        C  0.83479238  0.39083570  0.51461113     0.78000
O296        O  0.92330818  0.31867329  0.52878474    -0.58200
O297        O  0.87673333  0.36414084  0.56646570    -0.56600
O298        O  0.93689934  0.41671698  0.50533436    -0.56600
O299        O  0.84903669  0.42110530  0.52296817    -0.55800
O300        O  0.10880401  0.08956844  0.57056443    -0.57000
C301        C  0.06279638  0.05471788  0.51630304     0.75600
O302        O  0.09603409  0.18578192  0.52868164    -0.58200
C303        C  0.12423828  0.11986451  0.57843507     0.75600
C304        C  0.18476774  0.11082279  0.51671966     0.78000
Cd305      Cd  0.10849284  0.11592532  0.53579640     1.37500
O306        O  0.06989387  0.05343387  0.53495975    -0.57000
O307        O  0.17806660  0.09514153  0.53350860    -0.55800
C308        C  0.05936423  0.18406381  0.53220864     0.78000
O309        O  0.15622455  0.12854826  0.50865104    -0.58200
O310        O  0.07796150  0.08314694  0.50700456    -0.56600
O311        O  0.13205963  0.14762332  0.56659945    -0.56600
O312        O  0.04583394  0.15090338  0.53699288    -0.55800
O313        O  0.08794722  0.32233779  0.21793150    -0.57000
C314        C  0.15393602  0.41658335  0.22859555     0.75600
O315        O  0.21588542  0.30610357  0.21028187    -0.58200
C316        C  0.08858787  0.28952409  0.20906728     0.75600
C317        C  0.15637832  0.36817214  0.16632498     0.78000
Cd318      Cd  0.15411342  0.34310866  0.20770762     1.37500
O319        O  0.12275038  0.39680567  0.22581912    -0.57000
O320        O  0.13033111  0.37935001  0.17859500    -0.55800
C321        C  0.21256846  0.29826903  0.22875751     0.78000
O322        O  0.18281139  0.34591773  0.17331795    -0.58200
O323        O  0.18563160  0.40179699  0.22196506    -0.56600
O324        O  0.11967539  0.28154183  0.19943033    -0.56600
O325        O  0.18273543  0.31239422  0.23758401    -0.55800
O326        O  0.90637575  0.08721680  0.22448170    -0.57000
C327        C  0.95153110  0.18886861  0.20823861     0.75600
O328        O  0.90384129  0.11069847  0.17313202    -0.58200
C329        C  0.87439510  0.06812671  0.22510268     0.75600
C330        C  0.82401850  0.19080530  0.22450007     0.78000
Cd331      Cd  0.88130979  0.14160577  0.20461989     1.37500
O332        O  0.95339757  0.15191445  0.20811401    -0.57000
O333        O  0.85352940  0.17702973  0.23374084    -0.55800
C334        C  0.87767200  0.12506788  0.16194106     0.78000
O335        O  0.82077587  0.18109696  0.20620156    -0.58200
O336        O  0.91750264  0.20348717  0.20666321    -0.56600
O337        O  0.84494994  0.08361041  0.21665528    -0.56600
O338        O  0.85223861  0.14636212  0.17055058    -0.55800
O339        O  0.35272624  0.14982516  0.32278276    -0.57000
C340        C  0.32212881  0.19661520  0.27022461     0.75600
O341        O  0.43174276  0.18691721  0.30194426    -0.58200
C342        C  0.37649327  0.12550686  0.33045826     0.75600
C343        C  0.37473277  0.07049858  0.26815056     0.78000
Cd344      Cd  0.37937270  0.14503954  0.28836532     1.37500
O345        O  0.31869151  0.18637967  0.28837579    -0.57000
O346        O  0.34394494  0.08845616  0.27367751    -0.55800
C347        C  0.45009134  0.19183037  0.28568947     0.78000
O348        O  0.40728335  0.08702822  0.27207327    -0.58200
O349        O  0.35133885  0.18264858  0.26087345    -0.56600
O350        O  0.39964476  0.10845925  0.31837312    -0.56600
O351        O  0.43588796  0.17486190  0.27042291    -0.55800
O352        O  0.67949363  0.34387644  0.31734997    -0.57000
C353        C  0.71277471  0.29548032  0.26367569     0.75600
O354        O  0.59351606  0.31570073  0.26776323    -0.58200
C355        C  0.65345519  0.36643987  0.32461893     0.75600
C356        C  0.65107665  0.41778150  0.26158001     0.78000
Cd357      Cd  0.65347242  0.34442017  0.28258393     1.37500
O358        O  0.71903510  0.31191982  0.28044860    -0.57000
O359        O  0.68251257  0.40525371  0.26953703    -0.55800
C360        C  0.58658960  0.29295801  0.28224998     0.78000
O361        O  0.62101911  0.39603046  0.26320637    -0.58200
O362        O  0.67981090  0.30262393  0.25565842    -0.56600
O363        O  0.62902267  0.38033414  0.31222040    -0.56600
O364        O  0.61069864  0.29427059  0.29669077    -0.55800
O365        O  0.34397405  0.84319876  0.17000724    -0.57000
C366        C  0.31173307  0.80220728  0.22516212     0.75600
O367        O  0.44104580  0.83593152  0.20916623    -0.58200
C368        C  0.36791994  0.86734957  0.16230873     0.75600
C369        C  0.36804404  0.92227197  0.22590847     0.78000
Cd370      Cd  0.37015745  0.84892173  0.20472652     1.37500
O371        O  0.30788639  0.81180760  0.20693859    -0.57000
O372        O  0.33939275  0.91145549  0.21499328    -0.55800
C373        C  0.43837606  0.79921500  0.20710311     0.78000
O374        O  0.39671306  0.89876615  0.22711872    -0.58200
O375        O  0.34147125  0.81626517  0.23418438    -0.56600
O376        O  0.39191689  0.88341058  0.17428485    -0.56600
O377        O  0.40423042  0.78558465  0.20401085    -0.55800
O378        O  0.70391258  0.68221258  0.21063602    -0.57000
C379        C  0.64526941  0.62632183  0.16490411     0.75600
O380        O  0.61238231  0.58820342  0.22254120    -0.58200
C381        C  0.69659718  0.69669743  0.22777577     0.75600
C382        C  0.57308929  0.69642314  0.20823886     0.78000
Cd383      Cd  0.64097536  0.64682385  0.20687334     1.37500
O384        O  0.67124643  0.64784318  0.17305906    -0.57000
O385        O  0.60421142  0.70591616  0.19898270    -0.55800
C386        C  0.64503215  0.57158924  0.22585721     0.78000
O387        O  0.57338252  0.66360596  0.21696550    -0.58200
O388        O  0.61815753  0.61409247  0.17624158    -0.56600
O389        O  0.66388965  0.68704896  0.23552472    -0.56600
O390        O  0.67570697  0.59055218  0.22107459    -0.55800
O391        O  0.89849693  0.89455185  0.26390210    -0.57000
C392        C  0.94027006  0.79711493  0.28436568     0.75600
O393        O  0.84608832  0.84186495  0.32122777    -0.58200
C394        C  0.86969852  0.91794020  0.26451398     0.75600
C395        C  0.81058568  0.79931195  0.26685020     0.78000
Cd396      Cd  0.87106122  0.84574724  0.28644791     1.37500
O397        O  0.94191906  0.83351566  0.28121842    -0.57000
O398        O  0.84212190  0.80975884  0.25821594    -0.55800
C399        C  0.87081126  0.86571880  0.32862274     0.78000
O400        O  0.80622853  0.81129742  0.28473403    -0.58200
O401        O  0.90658558  0.78319893  0.28836087    -0.56600
O402        O  0.84035860  0.90737099  0.27495447    -0.56600
O403        O  0.89443960  0.88123522  0.31636945    -0.55800
O404        O  0.11702062  0.59110536  0.26538884    -0.57000
C405        C  0.07687349  0.69650711  0.28267274     0.75600
O406        O  0.17173811  0.64917672  0.31896389    -0.58200
C407        C  0.14791282  0.57038574  0.26543988     0.75600
C408        C  0.20430623  0.69462667  0.26491516     0.78000
Cd409      Cd  0.14512483  0.64648265  0.28449698     1.37500
O410        O  0.07802690  0.66422189  0.27331667    -0.57000
O411        O  0.17467326  0.68085645  0.25568134    -0.55800
C412        C  0.14636610  0.62638099  0.32655514     0.78000
O413        O  0.20762190  0.68464207  0.28308418    -0.58200
O414        O  0.10732809  0.70564090  0.29258604    -0.56600
O415        O  0.17796755  0.58549233  0.27374980    -0.56600
O416        O  0.12111831  0.61227492  0.31458856    -0.55800
C417        C  0.97560178  0.77201372  0.28340667    -0.04600
C418        C  0.97116069  0.73198916  0.27909619    -0.32100
C419        C  0.00392969  0.70724019  0.27830297     0.37200
C420        C  0.04192095  0.72223612  0.28230039    -0.05000
C421        C  0.04638322  0.76231550  0.28658036    -0.32000
C422        C  0.01369484  0.78723713  0.28694587     0.37100
H423        H  0.94214446  0.71982187  0.27618164     0.17400
O424        O  0.99834363  0.66839098  0.27381268    -0.59500
H425        H  0.07537527  0.77445778  0.28958503     0.17500
O426        O  0.01934804  0.82627648  0.29098406    -0.59600
H427        H  0.01692989  0.82879503  0.30574611     0.44500
H428        H  0.99362774  0.65551849  0.28688446     0.44400
C429        C  0.72487490  0.72357992  0.23798698    -0.04600
C430        C  0.75965111  0.73451217  0.22801589    -0.32100
C431        C  0.78742076  0.75923570  0.23711416     0.37200
C432        C  0.78084275  0.77399641  0.25664045    -0.05000
C433        C  0.74579703  0.76350289  0.26657118    -0.32000
C434        C  0.71786601  0.73879873  0.25739561     0.37100
H435        H  0.76563176  0.72368180  0.21303408     0.17400
O436        O  0.82090688  0.76872945  0.22664997    -0.59500
H437        H  0.73997702  0.77436108  0.28156391     0.17500
O438        O  0.68424096  0.72924294  0.26773504    -0.59600
H439        H  0.66554425  0.75088822  0.26506531     0.44500
H440        H  0.84005256  0.74771833  0.22978199     0.44400
C441        C  0.28377885  0.77515751  0.23531458    -0.04600
C442        C  0.28901357  0.76630013  0.25570739    -0.32100
C443        C  0.26392618  0.73984387  0.26552088     0.37200
C444        C  0.23272623  0.72157032  0.25496353    -0.05000
C445        C  0.22772304  0.73029722  0.23456051    -0.32000
C446        C  0.25295491  0.75644070  0.22473057     0.37100
H447        H  0.31278551  0.77980616  0.26414460     0.17400
O448        O  0.27056957  0.73181073  0.28535602    -0.59500
H449        H  0.20411038  0.71668604  0.22605677     0.17500
O450        O  0.24709683  0.76331348  0.20472212    -0.59600
H451        H  0.26256551  0.74284954  0.19766071     0.44500
H452        H  0.25867166  0.75396792  0.29285915     0.44400
C453        C  0.47313990  0.77348951  0.20806131    -0.04600
C454        C  0.46850756  0.73435607  0.21395079    -0.32100
C455        C  0.50086085  0.70903496  0.21450597     0.37200
C456        C  0.53848383  0.72257472  0.20870258    -0.05000
C457        C  0.54303018  0.76178516  0.20286858    -0.32000
C458        C  0.51081506  0.78718000  0.20258095     0.37100
H459        H  0.43969288  0.72334307  0.21819773     0.17400
O460        O  0.49501652  0.67081928  0.22000732    -0.59500
H461        H  0.57167883  0.77286493  0.19839343     0.17500
O462        O  0.51637882  0.82505366  0.19643676    -0.59600
H463        H  0.51097990  0.82469474  0.18182723     0.44500
H464        H  0.49551112  0.67105978  0.23486995     0.44400
C465        C  0.64708388  0.53192964  0.23456201    -0.04600
C466        C  0.61371067  0.50746693  0.23393258    -0.32100
C467        C  0.61477436  0.46981270  0.24208913     0.37200
C468        C  0.64953359  0.45617387  0.25138542    -0.05000
C469        C  0.68307153  0.48040557  0.25161436    -0.32000
C470        C  0.68211120  0.51784707  0.24327451     0.37100
H471        H  0.58664611  0.51748015  0.22702070     0.17400
O472        O  0.58139017  0.44705847  0.24121608    -0.59500
H473        H  0.71011725  0.47065436  0.25863194     0.17500
O474        O  0.71509748  0.54107312  0.24459729    -0.59600
H475        H  0.73226994  0.53259615  0.23335750     0.44500
H476        H  0.58365340  0.43203622  0.22850879     0.44400
C477        C  0.37282841  0.03241292  0.25756229    -0.04600
C478        C  0.33807796  0.02119821  0.24755605    -0.32100
C479        C  0.33591169  0.98560661  0.23705520     0.37200
C480        C  0.36873715  0.96028623  0.23667516    -0.05000
C481        C  0.40327346  0.97146412  0.24687333    -0.32000
C482        C  0.40554527  0.00707709  0.25718545     0.37100
H483        H  0.31257399  0.04025855  0.24768682     0.17400
O484        O  0.30131035  0.97558678  0.22764901    -0.59500
H485        H  0.42884293  0.95249372  0.24692966     0.17500
O486        O  0.43938123  0.01600632  0.26755526    -0.59600
H487        H  0.45806329  0.02611000  0.25736518     0.44500
H488        H  0.30217536  0.98913168  0.21454488     0.44400
C489        C  0.55215126  0.26639279  0.28259234    -0.04600
C490        C  0.54222223  0.24767032  0.30058963    -0.32100
C491        C  0.50937440  0.22306345  0.30172470     0.37200
C492        C  0.48583722  0.21646023  0.28462742    -0.05000
C493        C  0.49613968  0.23447381  0.26649917    -0.32000
C494        C  0.52885817  0.25947655  0.26540552     0.37100
H495        H  0.55970485  0.25244345  0.31398318     0.17400
O496        O  0.50054929  0.20573194  0.31967972    -0.59500
H497        H  0.47828520  0.22984392  0.25322046     0.17500
O498        O  0.53734281  0.27736090  0.24755436    -0.59600
H499        H  0.55438358  0.25860785  0.24019407     0.44500
H500        H  0.51351668  0.17975555  0.31914559     0.44400
C501        C  0.87221691  0.02951485  0.23487960    -0.04600
C502        C  0.90705903  0.00804429  0.23741468    -0.32100
C503        C  0.90653596  0.97151182  0.24668715     0.37200
C504        C  0.87068534  0.95581207  0.25386435    -0.05000
C505        C  0.83572846  0.97721335  0.25124336    -0.32000
C506        C  0.83621172  0.01355870  0.24160855     0.37100
H507        H  0.93497947  0.01953190  0.23209664     0.17400
O508        O  0.94140936  0.95163949  0.24875870    -0.59500
H509        H  0.80786835  0.96573640  0.25663239     0.17500
O510        O  0.80156172  0.03377366  0.23950243    -0.59600
H511        H  0.78931600  0.02317761  0.22710194     0.44500
H512        H  0.95301199  0.96143899  0.26148084     0.44400
C513        C  0.79522495  0.21720664  0.23453288    -0.04600
C514        C  0.80414879  0.23347034  0.25341539    -0.32100
C515        C  0.77789352  0.25907804  0.26305496     0.37200
C516        C  0.74178031  0.26895663  0.25387398    -0.05000
C517        C  0.73276743  0.25240845  0.23507258    -0.32000
C518        C  0.75906374  0.22700671  0.22539712     0.37100
H519        H  0.83179394  0.22658026  0.26072928     0.17400
O520        O  0.78816579  0.27452609  0.28134192    -0.59500
H521        H  0.70509208  0.25911926  0.22774234     0.17500
O522        O  0.74851372  0.21115596  0.20723473    -0.59600
H523        H  0.75568691  0.23125462  0.19718906     0.44500
H524        H  0.77740002  0.25596524  0.29134378     0.44400
C525        C  0.15287440  0.45526091  0.23867891    -0.04600
C526        C  0.11633964  0.47361227  0.24182417    -0.32100
C527        C  0.11416200  0.51082490  0.25059859     0.37200
C528        C  0.14899483  0.53065734  0.25636491    -0.05000
C529        C  0.18546158  0.51188217  0.25364624    -0.32000
C530        C  0.18763076  0.47465641  0.24482938     0.37100
H531        H  0.08918971  0.45925103  0.23729875     0.17400
O532        O  0.07775956  0.52742669  0.25340517    -0.59500
H533        H  0.21258576  0.52622707  0.25820940     0.17500
O534        O  0.22383063  0.45724172  0.24272632    -0.59600
H535        H  0.23525071  0.46854705  0.23034517     0.44500
H536        H  0.06855508  0.51761335  0.26656581     0.44400
C537        C  0.29397679  0.22327549  0.26012031    -0.04600
C538        C  0.29778182  0.22937072  0.23939140    -0.32100
C539        C  0.27209137  0.25411148  0.22911299     0.37200
C540        C  0.24144481  0.27335892  0.23946300    -0.05000
C541        C  0.23778182  0.26764951  0.26025727    -0.32000
C542        C  0.26366845  0.24289282  0.27057859     0.37100
H543        H  0.32075672  0.21468270  0.23095786     0.17400
O544        O  0.27673050  0.25832615  0.20881971    -0.59500
H545        H  0.21464876  0.28229561  0.26859804     0.17500
O546        O  0.25949901  0.23881120  0.29090711    -0.59600
H547        H  0.23875452  0.21857444  0.29264283     0.44500
H548        H  0.29528186  0.28060810  0.20724368     0.44400
C549        C  0.05446170  0.26252051  0.20976062    -0.04600
C550        C  0.01804079  0.27662936  0.21667648    -0.32100
C551        C  0.98451477  0.25276784  0.21655830     0.37200
C552        C  0.98708062  0.21375801  0.20974459    -0.05000
C553        C  0.02381872  0.19901306  0.20364343    -0.32000
C554        C  0.05729598  0.22315274  0.20340451     0.37100
H555        H  0.01523125  0.30660019  0.22187041     0.17400
O556        O  0.94956444  0.26764152  0.22359972    -0.59500
H557        H  0.02642807  0.16897845  0.19851506     0.17500
O558        O  0.09264760  0.20776372  0.19723602    -0.59600
H559        H  0.09169088  0.20820697  0.18238298     0.44500
H560        H  0.93879561  0.28341752  0.21243679     0.44400
C561        C  0.03381918  0.21901511  0.53132085    -0.04600
C562        C  0.05084117  0.25650408  0.53223983    -0.32100
C563        C  0.02718939  0.29002708  0.53280676     0.37200
C564        C  0.98572530  0.28642830  0.53198664    -0.05000
C565        C  0.96881742  0.24897903  0.53051359    -0.32000
C566        C  0.99239067  0.21548173  0.53037865     0.37100
H567        H  0.08260878  0.25989006  0.53299091     0.17400
O568        O  0.04500088  0.32609850  0.53382293    -0.59500
H569        H  0.93705733  0.24548289  0.52981213     0.17500
O570        O  0.97456554  0.17947043  0.52891948    -0.59600
H571        H  0.96553127  0.17332190  0.54269106     0.44500
H572        H  0.05087302  0.33036479  0.54823398     0.44400
C573        C  0.14550183  0.61789391  0.34832209    -0.04600
C574        C  0.16686751  0.64202658  0.36152917    -0.32100
C575        C  0.16360823  0.63756128  0.38229084     0.37200
C576        C  0.13860322  0.60846022  0.39031678    -0.05000
C577        C  0.11897929  0.58284541  0.37710407    -0.32000
C578        C  0.12211215  0.58744421  0.35629688     0.37100
H579        H  0.18524445  0.66542932  0.35578950     0.17400
O580        O  0.18412995  0.66270793  0.39455991    -0.59500
H581        H  0.09985213  0.56008665  0.38288784     0.17500
O582        O  0.10112578  0.56277646  0.34397276    -0.59600
H583        H  0.11888139  0.54027227  0.34141558     0.44500
H584        H  0.20988994  0.64979219  0.39689078     0.44400
C585        C  0.03578676  0.52115440  0.48395264    -0.04600
C586        C  0.00708453  0.50045426  0.47298255    -0.32100
C587        C  0.98019277  0.47568173  0.48263687     0.37200
C588        C  0.98185384  0.47108778  0.50363104    -0.05000
C589        C  0.01061160  0.49172024  0.51455147    -0.32000
C590        C  0.03755598  0.51627773  0.50492115     0.37100
H591        H  0.00498007  0.50399578  0.45689153     0.17400
O592        O  0.95233213  0.45636910  0.47138578    -0.59500
H593        H  0.01278877  0.48826655  0.53064692     0.17500
O594        O  0.06568509  0.53510715  0.51621248    -0.59600
H595        H  0.08908313  0.51774480  0.51579183     0.44500
H596        H  0.92892159  0.47373153  0.47146364     0.44400
C597        C  0.87315465  0.87422594  0.35040095    -0.04600
C598        C  0.89947615  0.90310336  0.35746294    -0.32100
C599        C  0.90539380  0.90900847  0.37804454     0.37200
C600        C  0.88523422  0.88542590  0.39200144    -0.05000
C601        C  0.85757460  0.85790813  0.38492623    -0.32000
C602        C  0.85138351  0.85226110  0.36441237     0.37100
H603        H  0.91636625  0.92058191  0.34700161     0.17400
O604        O  0.93245305  0.93645160  0.38422940    -0.59500
H605        H  0.84137863  0.83967261  0.39533072     0.17500
O606        O  0.82558867  0.82358006  0.35831287    -0.59600
H607        H  0.79954483  0.83664614  0.35751098     0.44500
H608        H  0.91748291  0.96128541  0.38525735     0.44400
C609        C  0.03758227  0.02520090  0.50590792    -0.04600
C610        C  0.02343077  0.99248570  0.51639086    -0.32100
C611        C  0.99856428  0.96496912  0.50708530     0.37200
C612        C  0.98698136  0.96995445  0.48691152    -0.05000
C613        C  0.00124525  0.00258588  0.47643234    -0.32000
C614        C  0.02653377  0.02974091  0.48562115     0.37100
H615        H  0.03164381  0.98811705  0.53190788     0.17400
O616        O  0.98625465  0.93309002  0.51784556    -0.59500
H617        H  0.99307472  0.00702619  0.46091301     0.17500
O618        O  0.03966971  0.06096792  0.47461551    -0.59600
H619        H  0.06425522  0.05176277  0.46806874     0.44500
H620        H  0.96208324  0.94180456  0.52493843     0.44400
C621        C  0.98693719  0.77836226  0.45606958    -0.04600
C622        C  0.96969973  0.74103462  0.45458473    -0.32100
C623        C  0.99311547  0.70730101  0.45439016     0.37200
C624        C  0.03453992  0.71050629  0.45609453    -0.05000
C625        C  0.05160782  0.74779341  0.45805368    -0.32000
C626        C  0.02828656  0.78149912  0.45786964     0.37100
H627        H  0.93796450  0.73794679  0.45331127     0.17400
O628        O  0.97506218  0.67137674  0.45308241    -0.59500
H629        H  0.08330200  0.75097587  0.45949779     0.17500
O630        O  0.04619668  0.81730855  0.46014249    -0.59600
H631        H  0.05622645  0.82410460  0.44663335     0.44500
H632        H  0.97022310  0.66708027  0.43857609     0.44400
C633        C  0.39116444  0.11065519  0.39431183    -0.04600
C634        C  0.36498586  0.13887316  0.38680484    -0.32100
C635        C  0.35860664  0.14291637  0.36618217     0.37200
C636        C  0.37875587  0.11865157  0.35243559    -0.05000
C637        C  0.40407856  0.08960156  0.35995137    -0.32000
C638        C  0.41014983  0.08531417  0.38063820     0.37100
H639        H  0.34966386  0.15845906  0.39696425     0.17400
O640        O  0.33311137  0.17127135  0.35968907    -0.59500
H641        H  0.41997661  0.07057469  0.34974406     0.17500
O642        O  0.43610931  0.05744675  0.38719143    -0.59600
H643        H  0.41997328  0.03347174  0.38901922     0.44500
H644        H  0.34899465  0.19569405  0.35925397     0.44400
C645        C  0.22401588  0.10902144  0.50720825    -0.04600
C646        C  0.25800468  0.11243011  0.51910314    -0.32100
C647        C  0.29561718  0.11258443  0.51036258     0.37200
C648        C  0.29971094  0.10780295  0.48945088    -0.05000
C649        C  0.26561232  0.10353245  0.47764580    -0.32000
C650        C  0.22801571  0.10454153  0.48633199     0.37100
H651        H  0.25536401  0.11596055  0.53519813     0.17400
O652        O  0.32813114  0.11648024  0.52245624    -0.59500
H653        H  0.26803490  0.10005539  0.46154254     0.17500
O654        O  0.19537529  0.10086999  0.47429912    -0.59600
H655        H  0.19191153  0.07230629  0.47219647     0.44500
H656        H  0.33102197  0.14504088  0.52479986     0.44400
C657        C  0.63778949  0.38586371  0.38819198    -0.04600
C658        C  0.66899488  0.36250834  0.38112773    -0.32100
C659        C  0.67545709  0.35708921  0.36055917     0.37200
C660        C  0.65038811  0.37503087  0.34646178    -0.05000
C661        C  0.62009103  0.39959379  0.35352863    -0.32000
C662        C  0.61364863  0.40503219  0.37411655     0.37100
H663        H  0.68809535  0.34754277  0.39159598     0.17400
O664        O  0.70536253  0.33278878  0.35450535    -0.59500
H665        H  0.60046743  0.41388934  0.34306533     0.17500
O666        O  0.58309770  0.42849075  0.38022965    -0.59600
H667        H  0.55968068  0.41102590  0.38069304     0.44500
H668        H  0.72917638  0.34968492  0.35393211     0.44400
C669        C  0.79669639  0.39111043  0.50385567    -0.04600
C670        C  0.77855770  0.35524352  0.49913073    -0.32100
C671        C  0.74237967  0.35398049  0.48916943     0.37200
C672        C  0.72353721  0.38906070  0.48365107    -0.05000
C673        C  0.74182492  0.42498469  0.48814843    -0.32000
C674        C  0.77805162  0.42623264  0.49821450     0.37100
H675        H  0.79231036  0.32786612  0.50329540     0.17400
O676        O  0.72581641  0.31819436  0.48491655    -0.59500
H677        H  0.72785217  0.45226915  0.48401834     0.17500
O678        O  0.79476723  0.46191937  0.50249590    -0.59600
H679        H  0.81053534  0.46865353  0.49046836     0.44500
H680        H  0.73696097  0.31041511  0.47174392     0.44400
C681        C  0.53698252  0.28168720  0.45693612    -0.04600
C682        C  0.49611256  0.28532818  0.45389989    -0.32100
C683        C  0.47124068  0.25263839  0.45485330     0.37200
C684        C  0.48710608  0.21549611  0.45895367    -0.05000
C685        C  0.52790796  0.21176326  0.46193071    -0.32000
C686        C  0.55278898  0.24442098  0.46105295     0.37100
H687        H  0.48331585  0.31356669  0.45052443     0.17400
O688        O  0.43193245  0.25692958  0.45049332    -0.59500
H689        H  0.54066149  0.18333017  0.46492759     0.17500
O690        O  0.59262031  0.23921356  0.46349363    -0.59600
H691        H  0.59692171  0.23919137  0.47819699     0.44500
H692        H  0.41976531  0.26709009  0.46299045     0.44400
C693        C  0.72598754  0.88525561  0.50517339    -0.04600
C694        C  0.72844074  0.89235701  0.48451183    -0.32100
C695        C  0.76517214  0.89399006  0.47489556     0.37200
C696        C  0.79998870  0.88697592  0.48583978    -0.05000
C697        C  0.79745757  0.87933946  0.50642353    -0.32000
C698        C  0.76090480  0.87923001  0.51617649     0.37100
H699        H  0.70183652  0.89700952  0.47584530     0.17400
O700        O  0.76658048  0.90050424  0.45463821    -0.59500
H701        H  0.82396509  0.87377818  0.51502451     0.17500
O702        O  0.75946938  0.87129603  0.53629116    -0.59600
H703        H  0.76436114  0.89677740  0.54305115     0.44500
H704        H  0.76679660  0.92937606  0.45320612     0.44400
C705        C  0.53749945  0.96620683  0.50668974    -0.04600
C706        C  0.53236598  0.00328413  0.51545858    -0.32100
C707        C  0.50778699  0.03125083  0.50661728     0.37200
C708        C  0.48744965  0.02242999  0.48863649    -0.05000
C709        C  0.49234710  0.98520705  0.47997483    -0.32000
C710        C  0.51712471  0.95734168  0.48874750     0.37100
H711        H  0.54774415  0.01086502  0.52918274     0.17400
O712        O  0.50472853  0.06741784  0.51549678    -0.59500
H713        H  0.47696641  0.97755286  0.46626362     0.17500
O714        O  0.52027698  0.92115669  0.47988583    -0.59600
H715        H  0.53997668  0.92447190  0.46903341     0.44500
H716        H  0.48331026  0.06472500  0.52552489     0.44400
C717        C  0.29715411  0.59795988  0.50429410    -0.04600
C718        C  0.29527136  0.60203685  0.48339346    -0.32100
C719        C  0.25886409  0.60217727  0.47347746     0.37200
C720        C  0.22358199  0.59974724  0.48454885    -0.05000
C721        C  0.22540642  0.59597198  0.50545236    -0.32000
C722        C  0.26186508  0.59423238  0.51529677     0.37100
H723        H  0.32212006  0.60503867  0.47470692     0.17400
O724        O  0.25800110  0.60683843  0.45307614    -0.59500
H725        H  0.19848342  0.59404588  0.51415935     0.17500
O726        O  0.26262849  0.59093775  0.53577095    -0.59600
H727        H  0.26003478  0.56251252  0.53842146     0.44500
H728        H  0.26152655  0.58015402  0.44744773     0.44400
C729        C  0.53874708  0.46923152  0.48538003    -0.04600
C730        C  0.52626910  0.50373495  0.47604455    -0.32100
C731        C  0.50001121  0.52923811  0.48558889     0.37200
C732        C  0.48571076  0.52069635  0.50499012    -0.05000
C733        C  0.49845397  0.48637008  0.51443098    -0.32000
C734        C  0.52472053  0.46079131  0.50484253     0.37100
H735        H  0.53665083  0.51098787  0.46115785     0.17400
O736        O  0.48934905  0.56293386  0.47591749    -0.59500
H737        H  0.48798472  0.47919462  0.52931058     0.17500
O738        O  0.53580415  0.42728124  0.51454776    -0.59600
H739        H  0.55861685  0.43505891  0.52300225     0.44500
H740        H  0.46727748  0.55520969  0.46695168     0.44400
C741        C  0.48655524  0.70807901  0.53157575    -0.04600
C742        C  0.52750594  0.70306746  0.53372062    -0.32100
C743        C  0.55305693  0.73530488  0.53413850     0.37200
C744        C  0.53775626  0.77347825  0.53268350    -0.05000
C745        C  0.49687612  0.77848013  0.53040551    -0.32000
C746        C  0.47140548  0.74624416  0.52958509     0.37100
H747        H  0.53987059  0.67401899  0.53525195     0.17400
O748        O  0.59266508  0.72916908  0.53688728    -0.59500
H749        H  0.48449081  0.80757876  0.52916412     0.17500
O750        O  0.43166544  0.75258527  0.52752959    -0.59600
H751        H  0.42734623  0.75583187  0.51293080     0.44500
H752        H  0.60332463  0.72389274  0.52329936     0.44400
C753        C  0.48517528  0.28658441  0.96130254    -0.04600
C754        C  0.52643361  0.29078074  0.96066199    -0.32100
C755        C  0.55109212  0.25791423  0.96082092     0.37200
C756        C  0.53453971  0.22000627  0.96149083    -0.05000
C757        C  0.49333488  0.21591990  0.96215794    -0.32000
C758        C  0.46875002  0.24868908  0.96213973     0.37100
H759        H  0.53966963  0.31963968  0.95982886     0.17400
O760        O  0.59111133  0.26319109  0.95922089    -0.59500
H761        H  0.47993789  0.18708992  0.96248150     0.17500
O762        O  0.42865260  0.24315950  0.96177475    -0.59600
H763        H  0.42096031  0.23915992  0.97595990     0.44500
H764        H  0.60048750  0.26752783  0.97313635     0.44400
C765        C  0.64547120  0.61735967  0.14317594    -0.04600
C766        C  0.66912384  0.63976878  0.13031846    -0.32100
C767        C  0.66586322  0.63584475  0.10950674     0.37200
C768        C  0.63836610  0.60922317  0.10115123    -0.05000
C769        C  0.61670088  0.58492795  0.11403636    -0.32000
C770        C  0.62022533  0.58863194  0.13484791     0.37100
H771        H  0.68917089  0.66158851  0.13636870     0.17400
O772        O  0.68859558  0.65941231  0.09755807    -0.59500
H773        H  0.59592820  0.56376511  0.10800950     0.17500
O774        O  0.59789967  0.56477209  0.14684735    -0.59600
H775        H  0.61472624  0.54162960  0.14943584     0.44500
H776        H  0.71253332  0.64382407  0.09453739     0.44400
C777        C  0.53838429  0.52489387  0.00539396    -0.04600
C778        C  0.52509375  0.53346137  0.98594128    -0.32100
C779        C  0.49871120  0.50852347  0.97593508     0.37200
C780        C  0.48527940  0.47405467  0.98531444    -0.05000
C781        C  0.49877320  0.46544185  0.00469947    -0.32000
C782        C  0.52511899  0.49030220  0.01468086     0.37100
H783        H  0.53484992  0.55985105  0.97846500     0.17400
O784        O  0.48649848  0.51816067  0.95699819    -0.59500
H785        H  0.48895284  0.43915989  0.01225146     0.17500
O786        O  0.53674334  0.48089773  0.03373991    -0.59600
H787        H  0.55974920  0.46332900  0.03198369     0.44500
H788        H  0.46316904  0.53525874  0.95898905     0.44400
C789        C  0.37831033  0.88225975  0.09837868    -0.04600
C790        C  0.39647897  0.90906529  0.11151562    -0.32100
C791        C  0.39184703  0.90582040  0.13232656     0.37200
C792        C  0.36896819  0.87510918  0.14043294    -0.05000
C793        C  0.34886933  0.84983707  0.12726754    -0.32000
C794        C  0.35322381  0.85325467  0.10648080     0.37100
H795        H  0.41534829  0.93200449  0.10570369     0.17400
O796        O  0.41080543  0.93220470  0.14456819    -0.59500
H797        H  0.33068243  0.82636417  0.13308431     0.17500
O798        O  0.33377915  0.82711330  0.09430620    -0.59600
H799        H  0.30798825  0.83950692  0.09139896     0.44500
H800        H  0.39218749  0.95437679  0.14606492     0.44400
C801        C  0.48182865  0.96923349  0.00424523    -0.04600
C802        C  0.49829780  0.00012438  0.01543150    -0.35300
C803        C  0.52354560  0.02752918  0.00652876     0.37200
C804        C  0.53269733  0.02476426  0.98590056    -0.05000
C805        C  0.51608602  0.99396338  0.97466440    -0.32000
C806        C  0.49093414  0.96641787  0.98360976     0.37100
H807        H  0.49180281  0.00305057  0.03126660     0.17400
O808        O  0.53823051  0.05747988  0.01811904    -0.59500
H809        H  0.52256488  0.99114258  0.95882358     0.17500
O810        O  0.47567206  0.93679907  0.97198810    -0.59600
H811        H  0.45107512  0.94758742  0.96618151     0.44500
H812        H  0.56176391  0.04645405  0.02486567     0.44400
C813        C  0.48282835  0.77804073  0.03520015    -0.04600
C814        C  0.46621275  0.74041545  0.03348547    -0.32100
C815        C  0.49006509  0.70699944  0.03412840     0.37200
C816        C  0.53126652  0.71098928  0.03607406    -0.05000
C817        C  0.54788881  0.74848100  0.03755197    -0.32000
C818        C  0.52410277  0.78179211  0.03736899     0.37100
H819        H  0.43462111  0.73681998  0.03174254     0.17400
O820        O  0.47304550  0.67075121  0.03187976    -0.59500
H821        H  0.57954150  0.75201766  0.03908220     0.17500
O822        O  0.54176122  0.81789400  0.03869618    -0.59600
H823        H  0.54559614  0.82265217  0.05324441     0.44500
H824        H  0.46284028  0.66391612  0.04534763     0.44400
C825        C  0.79805898  0.61214598  0.98807075    -0.04600
C826        C  0.78098831  0.64710448  0.99500904    -0.32100
C827        C  0.74389344  0.64712526  0.00417018     0.37200
C828        C  0.72328936  0.61165049  0.00688720    -0.05000
C829        C  0.74052232  0.57657150  0.00026736    -0.32000
C830        C  0.77736834  0.57661670  0.99075906     0.37100
H831        H  0.79628376  0.67475739  0.99320733     0.17400
O832        O  0.72877191  0.68188380  0.01107362    -0.59500
H833        H  0.72518951  0.54898388  0.00225660     0.17500
O834        O  0.79306541  0.54165837  0.98451141    -0.59600
H835        H  0.78206293  0.53715770  0.97091510     0.44500
H836        H  0.71572469  0.69386776  0.99931018     0.44400
C837        C  0.22167176  0.89172859  0.98390163    -0.04600
C838        C  0.25637962  0.88850532  0.97253549    -0.32100
C839        C  0.29321629  0.88589632  0.98195872     0.37200
C840        C  0.29577435  0.88812441  0.00300661    -0.05000
C841        C  0.26109770  0.89201500  0.01432602    -0.32000
C842        C  0.22421378  0.89317367  0.00495282     0.37100
H843        H  0.25487173  0.88717020  0.95632270     0.17400
O844        O  0.32659713  0.88255931  0.97045541    -0.59500
H845        H  0.26254930  0.89345323  0.03053795     0.17500
O846        O  0.19085838  0.89596954  0.01651331    -0.59600
H847        H  0.18529584  0.92439261  0.01752496     0.44500
H848        H  0.32894139  0.85422455  0.96738476     0.44400
C849        C  0.03296334  0.78982353  0.95654601    -0.04600
C850        C  0.05057078  0.75267614  0.95624098    -0.32100
C851        C  0.02749501  0.71867737  0.95614687     0.37200
C852        C  0.98603018  0.72144828  0.95702413    -0.05000
C853        C  0.96844892  0.75858593  0.95769315    -0.32000
C854        C  0.99148335  0.79259395  0.95720059     0.37100
H855        H  0.08239875  0.74988996  0.95570139     0.17400
O856        O  0.04586746  0.68294914  0.95574718    -0.59500
H857        H  0.93662335  0.76134365  0.95829263     0.17500
O858        O  0.97312176  0.82831269  0.95790355    -0.59600
H859        H  0.96550560  0.83390347  0.94385612     0.44500
H860        H  0.05212618  0.67803904  0.94143331     0.44400
C861        C  0.87803959  0.11904834  0.13992176    -0.04600
C862        C  0.85661203  0.14468705  0.12772030    -0.32100
C863        C  0.86085726  0.14383001  0.10687322     0.37200
C864        C  0.88665934  0.11667818  0.09774815    -0.05000
C865        C  0.90602028  0.08923880  0.10985088    -0.32000
C866        C  0.90197327  0.09029445  0.13075182     0.37100
H867        H  0.83773659  0.16675181  0.13438289     0.17400
O868        O  0.84064013  0.17069318  0.09567120    -0.59500
H869        H  0.92555950  0.06776103  0.10318187     0.17500
O870        O  0.92266059  0.06393809  0.14205166    -0.59600
H871        H  0.90533519  0.04056855  0.14294925     0.44500
H872        H  0.81524699  0.15778447  0.09225838     0.44400
C873        C  0.79642721  0.11442582  0.00491217    -0.04600
C874        C  0.79336993  0.11360747  0.98394154    -0.32100
C875        C  0.75644952  0.11102167  0.97457839     0.37200
C876        C  0.72171386  0.11065647  0.98619905    -0.05000
C877        C  0.72475948  0.11174878  0.00717139    -0.32000
C878        C  0.76172561  0.11286617  0.01654686     0.37100
H879        H  0.81972335  0.11464950  0.97476005     0.17400
O880        O  0.75460068  0.11083110  0.95404493    -0.59500
H881        H  0.69837636  0.11153491  0.01634803     0.17500
O882        O  0.76350959  0.11423505  0.03707786    -0.59600
H883        H  0.76160059  0.08658581  0.04142496     0.44500
H884        H  0.75830349  0.08307598  0.95005559     0.44400
C885        C  0.03743356  0.98300911  0.98344767    -0.04600
C886        C  0.02605637  0.01751748  0.97369087    -0.32100
C887        C  0.00098858  0.04461096  0.98308851     0.37200
C888        C  0.98680190  0.03758810  0.00268055    -0.05000
C889        C  0.99846638  0.00325796  0.01245668    -0.32000
C890        C  0.02358506  0.97631628  0.00312932     0.37100
H891        H  0.03629568  0.02343458  0.95862435     0.17400
O892        O  0.99096988  0.07801761  0.97299646    -0.59500
H893        H  0.98823114  0.99720396  0.02751062     0.17500
O894        O  0.03409530  0.94334526  0.01346015    -0.59600
H895        H  0.05910504  0.95029929  0.02035307     0.44500
H896        H  0.96711526  0.07095091  0.96514401     0.44400
C897        C  0.14066855  0.39380600  0.10366819    -0.04600
C898        C  0.17028608  0.36766500  0.10980464    -0.32100
C899        C  0.17731987  0.36050915  0.13014688     0.37200
C900        C  0.15438294  0.37943828  0.14488907    -0.05000
C901        C  0.12644392  0.40734822  0.13879631    -0.32000
C902        C  0.11968457  0.41479717  0.11845624     0.37100
H903        H  0.18740886  0.35167470  0.09878049     0.17400
O904        O  0.20590544  0.33408768  0.13534546    -0.59500
H905        H  0.10885123  0.42279220  0.14983640     0.17500
O906        O  0.09125812  0.44138943  0.11329000    -0.59600
H907        H  0.10503777  0.46703060  0.11302604     0.44500
H908        H  0.19261472  0.30817933  0.13503594     0.44400
C909        C  0.29412798  0.39729217  0.98510918    -0.04600
C910        C  0.27302454  0.36237970  0.98802460    -0.32100
C911        C  0.23659856  0.36231856  0.99783740     0.37200
C912        C  0.22037674  0.39770614  0.00505795    -0.05000
C913        C  0.24115638  0.43280171  0.00182858    -0.32000
C914        C  0.27753807  0.43286058  0.99178719     0.37100
H915        H  0.28493306  0.33475109  0.98278403     0.17400
O916        O  0.21752602  0.32727050  0.00053066    -0.59500
H917        H  0.22930963  0.46034915  0.00720268     0.17500
O918        O  0.29733783  0.46760102  0.98940226    -0.59600
H919        H  0.28521877  0.47993808  0.97747947     0.44500
H920        H  0.22746397  0.31718794  0.01348827     0.44400
C921        C  0.98564154  0.53594695  0.98929411    -0.04600
C922        C  0.99108394  0.49802122  0.98161266    -0.32100
C923        C  0.01574483  0.47123805  0.99123367     0.37200
C924        C  0.03599134  0.48207736  0.00894417    -0.05000
C925        C  0.03040355  0.51995032  0.01672912    -0.32000
C926        C  0.00566421  0.54678558  0.00707511     0.37100
H927        H  0.97621071  0.48892195  0.96798332     0.17400
O928        O  0.02024729  0.43472201  0.98290520    -0.59500
H929        H  0.04531569  0.52894101  0.03036546     0.17500
O930        O  0.00110334  0.58336287  0.01531595    -0.59600
H931        H  0.02319449  0.59915426  0.00985937     0.44500
H932        H  0.99758786  0.41916868  0.98793056     0.44400
C933        C  0.03406894  0.29498290  0.03570077    -0.04600
C934        C  0.05077441  0.25755361  0.03655718    -0.32100
C935        C  0.02701742  0.22408749  0.03611535     0.37200
C936        C  0.98567576  0.22757096  0.03424831    -0.05000
C937        C  0.96901563  0.26505788  0.03280193    -0.32000
C938        C  0.99280931  0.29862463  0.03371133     0.37100
H939        H  0.08243013  0.25413181  0.03799023     0.17400
O940        O  0.04473147  0.18809581  0.03713477    -0.59500
H941        H  0.93738788  0.26844485  0.03123825     0.17500
O942        O  0.97553793  0.33473350  0.03201805    -0.59600
H943        H  0.96633295  0.34143812  0.04571775     0.44500
H944        H  0.04915969  0.18347792  0.05162485     0.44400
C945        C  0.64621193  0.12980774  0.85128527    -0.04600
C946        C  0.66293937  0.15628136  0.86504445    -0.32100
C947        C  0.65660351  0.15225399  0.88569515     0.37200
C948        C  0.63374129  0.12082926  0.89309488    -0.05000
C949        C  0.61871999  0.09319058  0.87942407    -0.32000
C950        C  0.62451474  0.09758166  0.85872492     0.37100
H951        H  0.68002367  0.18103390  0.85978141     0.17400
O952        O  0.67330342  0.17910210  0.89851749    -0.59500
H953        H  0.60139085  0.06863617  0.88472496     0.17500
O954        O  0.60883626  0.07007808  0.84593665    -0.59600
H955        H  0.58090159  0.07785394  0.84407326     0.44500
H956        H  0.65539497  0.20201809  0.89829375     0.44400
C957        C  0.38054626  0.37671506  0.84948087    -0.04600
C958        C  0.35910540  0.35168735  0.86210873    -0.32100
C959        C  0.36209692  0.35498159  0.88298784     0.37200
C960        C  0.38660869  0.38397633  0.89163384    -0.05000
C961        C  0.40714023  0.40967321  0.87902320    -0.32000
C962        C  0.40455485  0.40608786  0.85818378     0.37100
H963        H  0.34058400  0.32883800  0.85580420     0.17400
O964        O  0.34158599  0.32912095  0.89473770    -0.59500
H965        H  0.42628592  0.43203392  0.88531075     0.17500
O966        O  0.42648811  0.43093097  0.84652986    -0.59600
H967        H  0.40919963  0.45380484  0.84411886     0.44500
H968        H  0.31487511  0.34057256  0.89619243     0.44400
C969        C  0.48195394  0.28478495  0.78006278    -0.04600
C970        C  0.47696970  0.24484368  0.77555173    -0.32100
C971        C  0.50920864  0.21927486  0.77537770     0.37200
C972        C  0.54708591  0.23317032  0.78058863    -0.05000
C973        C  0.55218631  0.27332224  0.78457581    -0.32000
C974        C  0.52018571  0.29912475  0.78403737     0.37100
H975        H  0.44789410  0.23330165  0.77216350     0.17400
O976        O  0.50297243  0.18053635  0.77085875    -0.59500
H977        H  0.58111471  0.28483243  0.78829353     0.17500
O978        O  0.52639742  0.33792061  0.78842966    -0.59600
H979        H  0.53416762  0.35002225  0.77553130     0.44500
H980        H  0.50438189  0.17890820  0.75602978     0.44400
C981        C  0.14363443  0.13129734  0.64225722    -0.04600
C982        C  0.16244376  0.15669665  0.62879643    -0.32100
C983        C  0.15704001  0.15283637  0.60808804     0.37200
C984        C  0.13235227  0.12306000  0.60028683    -0.05000
C985        C  0.11467548  0.09668384  0.61367222    -0.32000
C986        C  0.11996610  0.10065362  0.63445568     0.37100
H987        H  0.18087026  0.18036709  0.63432632     0.17400
O988        O  0.17573059  0.17882376  0.59566796    -0.59500
H989        H  0.09585884  0.07338779  0.60806464     0.17500
O990        O  0.10175044  0.07442228  0.64693207    -0.59600
H991        H  0.07451825  0.08444058  0.64869199     0.44500
H992        H  0.20129861  0.16636248  0.59229123     0.44400
C993        C  0.28579260  0.28995876  0.75491909    -0.04600
C994        C  0.29317941  0.27697750  0.73522709    -0.32100
C995        C  0.26755086  0.25084970  0.72549282     0.37200
C996        C  0.23328069  0.23737209  0.73529685    -0.05000
C997        C  0.22563450  0.25070876  0.75491017    -0.32000
C998        C  0.25140560  0.27670099  0.76469220     0.37100
H999        H  0.31932794  0.28669439  0.72732277     0.17400
O1000       O  0.27620357  0.23914656  0.70630222    -0.59500
H1001       H  0.19956255  0.24082911  0.76282438     0.17500
O1002       O  0.24309889  0.28802399  0.78398212    -0.59600
H1003       H  0.22523646  0.31081609  0.78268545     0.44500
H1004       H  0.29373695  0.21614514  0.70780578     0.44400
C1005       C  0.86981899  0.38178100  0.64155033    -0.04600
C1006       C  0.89834940  0.40778676  0.63397873    -0.32100
C1007       C  0.90394136  0.41220411  0.61332790     0.37200
C1008       C  0.88059723  0.39065063  0.59969320    -0.05000
C1009       C  0.85107248  0.36573555  0.60720973    -0.32000
C1010       C  0.84558386  0.36115733  0.62789104     0.37100
H1011       H  0.91739663  0.42400717  0.64409956     0.17400
O1012       O  0.93334584  0.43660190  0.60671443    -0.59500
H1013       H  0.83261290  0.34902513  0.59701076     0.17500
O1014       O  0.81680146  0.33604168  0.63450442    -0.59600
H1015       H  0.82894558  0.30966613  0.63403073     0.44500
H1016       H  0.95742136  0.42016160  0.60624652     0.44400
C1017       C  0.78828127  0.27796730  0.73510091    -0.04600
C1018       C  0.75022186  0.27213442  0.72732496    -0.32100
C1019       C  0.72345214  0.24687567  0.73671232     0.37200
C1020       C  0.73441477  0.22686002  0.75433659    -0.05000
C1021       C  0.77262360  0.23233527  0.76196558    -0.32000
C1022       C  0.79935545  0.25764492  0.75261102     0.37100
H1023       H  0.74093629  0.28743632  0.71395610     0.17400
O1024       O  0.68629515  0.24296376  0.72878737    -0.59500
H1025       H  0.78185125  0.21721507  0.77539921     0.17500
O1026       O  0.83636157  0.26190021  0.76067866    -0.59600
H1027       H  0.83330767  0.28123599  0.77170974     0.44500
H1028       H  0.68866621  0.22232665  0.71834745     0.44400
C1029       C  0.97544156  0.28355684  0.70728903    -0.04600
C1030       C  0.99404638  0.27371765  0.68918160    -0.32100
C1031       C  0.02678601  0.24902691  0.68889436     0.37200
C1032       C  0.04154781  0.23353705  0.70695221    -0.05000
C1033       C  0.02257823  0.24287316  0.72506008    -0.32000
C1034       C  0.98980701  0.26772311  0.72533374     0.37100
H1035       H  0.98331652  0.28539192  0.67513540     0.17400
O1036       O  0.04400850  0.24022988  0.67082178    -0.59500
H1037       H  0.03337558  0.23118482  0.73908559     0.17500
O1038       O  0.97191192  0.27600222  0.74329453    -0.59600
H1039       H  0.95048421  0.25633227  0.74457800     0.44500
H1040       H  0.03110843  0.21563090  0.66629427     0.44400
C1041       C  0.37474876  0.63099475  0.64067397    -0.04600
C1042       C  0.39534068  0.59776957  0.63391634    -0.32100
C1043       C  0.40017978  0.59013729  0.61342275     0.37200
C1044       C  0.38449103  0.61605776  0.59912835    -0.05000
C1045       C  0.36270706  0.64857217  0.60589515    -0.32000
C1046       C  0.35746130  0.65593923  0.62640161     0.37100
H1047       H  0.40851713  0.57785387  0.64456490     0.17400
O1048       O  0.42091462  0.55757679  0.60761698    -0.59500
H1049       H  0.35009581  0.66884449  0.59524861     0.17500
O1050       O  0.33676577  0.68851294  0.63223590    -0.59600
H1051       H  0.30885117  0.67984762  0.63293867     0.44500
H1052       H  0.44901968  0.56577558  0.60774433     0.44400
C1053       C  0.37126453  0.47415220  0.75607906    -0.04600
C1054       C  0.36567211  0.47644557  0.73529664    -0.32100
C1055       C  0.36420905  0.51276179  0.72569806     0.37200
C1056       C  0.37018097  0.54757375  0.73675270    -0.05000
C1057       C  0.37613247  0.54529094  0.75754030    -0.32000
C1058       C  0.37575057  0.50898473  0.76728101     0.37100
H1059       H  0.36200009  0.44995510  0.72647468     0.17400
O1060       O  0.35876071  0.51377129  0.70533820    -0.59500
H1061       H  0.38071755  0.57173784  0.76628275     0.17500
O1062       O  0.38161388  0.50775642  0.78760497    -0.59600
H1063       H  0.35512090  0.51173952  0.79357960     0.44500
H1064       H  0.32975989  0.51292778  0.70340643     0.44400
C1065       C  0.64891803  0.87742786  0.64150212    -0.04600
C1066       C  0.67088705  0.85336545  0.62854830    -0.32100
C1067       C  0.66510520  0.85445819  0.60779355     0.37200
C1068       C  0.63675859  0.87988236  0.59949531    -0.05000
C1069       C  0.61572041  0.90491483  0.61235360    -0.32000
C1070       C  0.62160422  0.90392993  0.63313920     0.37100
H1071       H  0.69218636  0.83291953  0.63452874     0.17400
O1072       O  0.68698518  0.82998830  0.59583688    -0.59500
H1073       H  0.59384455  0.92472292  0.60634275     0.17500
O1074       O  0.59925013  0.92791568  0.64512048    -0.59600
H1075       H  0.61407488  0.95296375  0.64583905     0.44500
H1076       H  0.70994843  0.84588422  0.59149503     0.44400
C1077       C  0.65393722  0.96761796  0.73813494    -0.04600
C1078       C  0.68962230  0.98771161  0.74142646    -0.32100
C1079       C  0.69016714  0.02428309  0.75105402     0.37200
C1080       C  0.65447123  0.04188916  0.75715546    -0.05000
C1081       C  0.61891524  0.02156308  0.75402255    -0.32000
C1082       C  0.61844939  0.98465887  0.74488871     0.37100
H1083       H  0.71730305  0.97503095  0.73655606     0.17400
O1084       O  0.72566446  0.04286668  0.75391722    -0.59500
H1085       H  0.59112416  0.03422093  0.75874335     0.17500
O1086       O  0.58287425  0.96617937  0.74207761    -0.59600
H1087       H  0.57697272  0.95332209  0.75503280     0.44500
H1088       H  0.73589956  0.03256658  0.76677238     0.44400
C1089       C  0.54981249  0.77985697  0.70724097    -0.04600
C1090       C  0.55349016  0.74087723  0.70059477    -0.32100
C1091       C  0.52068709  0.71590521  0.69985403     0.37200
C1092       C  0.48330387  0.72994638  0.70551656    -0.05000
C1093       C  0.47952706  0.76888428  0.71203268    -0.32000
C1094       C  0.51236473  0.79363599  0.71315859     0.37100
H1095       H  0.58188035  0.72964744  0.69585000     0.17400
O1096       O  0.52517724  0.67847689  0.69267790    -0.59500
H1097       H  0.45097137  0.78015224  0.71651015     0.17500
O1098       O  0.50718256  0.83149856  0.71955986    -0.59600
H1099       H  0.50811220  0.83027740  0.73440152     0.44500
H1100       H  0.53493788  0.66312201  0.70422701     0.44400
C1101       C  0.14733810  0.88068282  0.84749565    -0.04600
C1102       C  0.16244087  0.85241469  0.86060868    -0.32100
C1103       C  0.15598556  0.85515921  0.88131211     0.37200
C1104       C  0.13414797  0.88675231  0.88935407    -0.05000
C1105       C  0.12048730  0.91583683  0.87632614    -0.32000
C1106       C  0.12712619  0.91319032  0.85564860     0.37100
H1107       H  0.17845891  0.82741857  0.85478186     0.17400
O1108       O  0.17147662  0.82687626  0.89350794    -0.59500
H1109       H  0.10404102  0.94058334  0.88212084     0.17500
O1110       O  0.11291526  0.94224518  0.84354509    -0.59600
H1111       H  0.13352396  0.96292100  0.84375232     0.44500
H1112       H  0.15211962  0.80504831  0.89313928     0.44400
C1113       C  0.15079868  0.97042845  0.75149257    -0.04600
C1114       C  0.11500710  0.98603138  0.74456457    -0.32100
C1115       C  0.11357800  0.02325231  0.73595670     0.37200
C1116       C  0.14839015  0.04564709  0.73405356    -0.05000
C1117       C  0.18429238  0.02973428  0.74054779    -0.32000
C1118       C  0.18570101  0.99258948  0.74925290     0.37100
H1119       H  0.08779937  0.96957135  0.74606584     0.17400
O1120       O  0.07795084  0.03734419  0.72946914    -0.59500
H1121       H  0.21142075  0.04635016  0.73911710     0.17500
O1122       O  0.22134658  0.97853636  0.75570406    -0.59600
H1123       H  0.23280292  0.96486512  0.74392481     0.44500
H1124       H  0.07596533  0.02904000  0.71523657     0.44400
C1125       C  0.29035925  0.73486137  0.73343651    -0.04600
C1126       C  0.25143869  0.73713054  0.72635137    -0.32100
C1127       C  0.22399754  0.76213929  0.73546239     0.37200
C1128       C  0.23532333  0.78595981  0.75187475    -0.05000
C1129       C  0.27430328  0.78386594  0.75886574    -0.32000
C1130       C  0.30175856  0.75896564  0.74972906     0.37100
H1131       H  0.24198374  0.71905610  0.71384239     0.17400
O1132       O  0.18605733  0.76257854  0.72831060    -0.59500
H1133       H  0.28374239  0.80185011  0.77141212     0.17500
O1134       O  0.33970122  0.75861886  0.75688364    -0.59600
H1135       H  0.35363658  0.77953219  0.74940890     0.44500
H1136       H  0.17200430  0.74186852  0.73587660     0.44400
C1137       C  0.87407482  0.62874659  0.85069820    -0.04600
C1138       C  0.89988248  0.60006483  0.85804683    -0.32100
C1139       C  0.90494136  0.59462850  0.87867234     0.37200
C1140       C  0.88418115  0.61825004  0.89246674    -0.05000
C1141       C  0.85721929  0.64591274  0.88510277    -0.32000
C1142       C  0.85210691  0.65130610  0.86447916     0.37100
H1143       H  0.91707486  0.58233862  0.84776905     0.17400
O1144       O  0.93188704  0.56758084  0.88509249    -0.59500
H1145       H  0.84072442  0.66431677  0.89536458     0.17500
O1146       O  0.82646017  0.67959228  0.85804554    -0.59600
H1147       H  0.84234632  0.70399252  0.85743533     0.44500
H1148       H  0.91710070  0.54252424  0.88575907     0.44400
C1149       C  0.86732546  0.54559910  0.75503676    -0.04600
C1150       C  0.90294986  0.52945285  0.74819138    -0.32100
C1151       C  0.90400644  0.49275319  0.73891264     0.37200
C1152       C  0.86882924  0.47139616  0.73587759    -0.05000
C1153       C  0.83298172  0.48762561  0.74250370    -0.32000
C1154       C  0.83204668  0.52421986  0.75217676     0.37100
H1155       H  0.93050510  0.54514987  0.75020323     0.17400
O1156       O  0.93964990  0.47859341  0.73242868    -0.59500
H1157       H  0.80556471  0.47175683  0.74036380     0.17500
O1158       O  0.79647289  0.53893032  0.75843535    -0.59600
H1159       H  0.79196137  0.52735491  0.77184517     0.44500
H1160       H  0.95172586  0.46625040  0.74436202     0.44400
C1161       C  0.79490385  0.73759245  0.75762427    -0.04600
C1162       C  0.75944671  0.74824837  0.76702129    -0.32100
C1163       C  0.73276332  0.77339359  0.75765521     0.37200
C1164       C  0.74115195  0.78842937  0.73843208    -0.05000
C1165       C  0.77722305  0.77884605  0.72932802    -0.32000
C1166       C  0.80389367  0.75362023  0.73868769     0.37100
H1167       H  0.75201294  0.73668954  0.78163634     0.17400
O1168       O  0.69816030  0.78224690  0.76730766    -0.59500
H1169       H  0.78453592  0.79025969  0.71466819     0.17500
O1170       O  0.83864744  0.74495313  0.72912868    -0.59600
H1171       H  0.83238832  0.72249956  0.72018334     0.44500
H1172       H  0.70430853  0.80550061  0.77571823     0.44400
C1173       C  0.98001508  0.73135776  0.78358325    -0.04600
C1174       C  0.97539464  0.77123097  0.78827698    -0.32100
C1175       C  0.00708485  0.79734430  0.78681115     0.37200
C1176       C  0.04448105  0.78362078  0.78090719    -0.05000
C1177       C  0.04911424  0.74380199  0.77609776    -0.32000
C1178       C  0.01723904  0.71777738  0.77725181     0.37100
H1179       H  0.94701047  0.78234823  0.79310821     0.17400
O1180       O  0.00158561  0.83575120  0.79220285    -0.59500
H1181       H  0.07768358  0.73265774  0.77156781     0.17500
O1182       O  0.02330699  0.67890205  0.77305618    -0.59600
H1183       H  0.02218008  0.67678456  0.75823681     0.44500
H1184       H  0.99028709  0.84843006  0.78016733     0.44400
loop_ 
_geom_bond_atom_site_label_1 
_geom_bond_atom_site_label_2 
_geom_bond_distance 
_geom_bond_site_symmetry_2 
_ccdc_geom_bond_type 
O1            C4   1.267       .  A
O1           Cd6   2.469       .  S
C2           O11   1.264       .  A
C2            O7   1.265       .  A
C2         C1137   1.482       .  S
O3            C9   1.265       .  A
O3           Cd6   2.429       .  S
C4           O12   1.264       .  A
C4         C1161   1.482       .  S
C5           O10   1.266       .  A
C5            O8   1.264       .  A
C5         C1173   1.478       .  S
Cd6          O13   2.492       .  S
Cd6          O12   2.440       .  S
Cd6          O11   2.458       .  S
Cd6           O7   2.466       .  S
Cd6          O10   2.473       .  S
Cd6           O8   2.442       .  S
C9           O13   1.266       .  A
C9         C1149   1.483       .  S
O14          C17   1.269       .  A
O14         Cd19   2.475       .  S
C15          O24   1.262       .  A
C15          O20   1.266       .  A
C15        C1101   1.486       .  S
O16          C22   1.266       .  A
O16         Cd19   2.456       .  S
C17          O25   1.265       .  A
C17        C1128   1.484       .  S
C18          O23   1.265       .  A
C18          O21   1.262       .  A
C18        C1176   1.476       .  S
Cd19         O26   2.463       .  S
Cd19         O25   2.448       .  S
Cd19         O24   2.459       .  S
Cd19         O20   2.496       .  S
Cd19         O23   2.473       .  S
Cd19         O21   2.440       .  S
C22          O26   1.266       .  A
C22        C1113   1.482       .  S
O27          C30   1.265       .  A
O27         Cd32   2.444       .  S
C28          O37   1.264       .  A
C28          O33   1.266       .  A
C28        C1089   1.480       .  S
O29          C35   1.266       .  A
O29         Cd32   2.474       .  S
C30          O38   1.267       .  A
C30        C1077   1.482       .  S
C31          O36   1.268       .  A
C31          O34   1.264       .  A
C31        C1164   1.483       .  S
Cd32         O39   2.467       .  S
Cd32         O38   2.468       .  S
Cd32         O37   2.450       .  S
Cd32         O33   2.461       .  S
Cd32         O36   2.481       .  S
Cd32         O34   2.435       .  S
C35          O39   1.264       .  A
C35        C1065   1.486       .  S
O40          C43   1.266       .  A
O40         Cd45   2.485       .  S
C41          O50   1.262       .  A
C41          O46   1.266       .  A
C41        C1092   1.474       .  S
O42          C48   1.267       .  A
O42         Cd45   2.480       .  S
C43          O51   1.264       .  A
C43        C1056   1.479       .  S
C44          O49   1.269       .  A
C44          O47   1.264       .  A
C44        C1125   1.484       .  S
Cd45         O52   2.444       .  S
Cd45         O51   2.455       .  S
Cd45         O50   2.438       .  S
Cd45         O46   2.481       .  S
Cd45         O49   2.485       .  S
Cd45         O47   2.438       .  S
C48          O52   1.264       .  A
C48        C1041   1.484       .  S
O53          C56   1.269       .  A
O53         Cd58   2.481       .  S
C54          O63   1.262       .  A
C54          O59   1.268       .  A
C54        C1017   1.484       .  S
O55          C61   1.265       .  A
O55         Cd58   2.464       .  S
C56          O64   1.266       .  A
C56        C1005   1.486       .  S
C57          O62   1.264       .  A
C57          O60   1.266       .  A
C57        C1152   1.484       .  S
Cd58         O65   2.444       .  S
Cd58         O64   2.444       .  S
Cd58         O63   2.441       .  S
Cd58         O59   2.486       .  S
Cd58         O62   2.454       .  S
Cd58         O60   2.482       .  S
C61          O65   1.264       .  A
C61        C1029   1.475       .  S
O66          C69   1.267       .  A
O66         Cd71   2.493       .  S
C67          O76   1.265       .  A
C67          O72   1.268       .  A
C67         C981   1.487       .  S
O68          C74   1.266       .  A
O68         Cd71   2.449       .  S
C69          O77   1.264       .  A
C69         C996   1.488       .  S
C70          O75   1.262       .  A
C70          O73   1.266       .  A
C70        C1032   1.476       .  S
Cd71         O78   2.455       .  S
Cd71         O77   2.461       .  S
Cd71         O76   2.469       .  S
Cd71         O72   2.469       .  S
Cd71         O75   2.428       .  S
Cd71         O73   2.477       .  S
C74          O78   1.267       .  A
C74        C1116   1.478       .  S
O79          C82   1.265       .  A
O79         Cd84   2.474       .  S
C80          O89   1.263       .  A
C80          O85   1.266       .  A
C80         C969   1.480       .  S
O81          C87   1.268       .  A
O81         Cd84   2.481       .  S
C82          O90   1.264       .  A
C82        C1053   1.478       .  S
C83          O88   1.269       .  A
C83          O86   1.264       .  A
C83         C993   1.487       .  S
Cd84         O91   2.445       .  S
Cd84         O90   2.479       .  S
Cd84         O89   2.456       .  S
Cd84         O85   2.480       .  S
Cd84         O88   2.494       .  S
Cd84         O86   2.440       .  S
C87          O91   1.264       .  A
C87         C957   1.483       .  S
O92          C95   1.266       .  A
O92         Cd97   2.443       .  S
C93         O102   1.265       .  A
C93          O98   1.266       .  A
C93         C972   1.482       .  S
O94         C100   1.267       .  A
O94         Cd97   2.505       .  S
C95         O103   1.266       .  A
C95        C1080   1.482       .  S
C96         O101   1.270       .  A
C96          O99   1.264       .  A
C96        C1020   1.484       .  S
Cd97        O104   2.460       .  S
Cd97        O103   2.472       .  S
Cd97        O102   2.453       .  S
Cd97         O98   2.477       .  S
Cd97        O101   2.475       .  S
Cd97         O99   2.440       .  S
C100        O104   1.262       .  A
C100        C945   1.489       .  S
O105        C108   1.264       .  A
O105       Cd110   2.453       .  S
C106        O115   1.264       .  A
C106        O111   1.266       .  A
C106        C933   1.476       .  S
O107        C113   1.266       .  A
O107       Cd110   2.504       .  S
C108        O116   1.267       .  A
C108        C912   1.484       .  S
C109        O114   1.270       .  A
C109        O112   1.264       .  A
C109        C924   1.487       .  S
Cd110       O117   2.457       .  S
Cd110       O116   2.482       .  S
Cd110       O115   2.451       .  S
Cd110       O111   2.454       .  S
Cd110       O114   2.494       .  S
Cd110       O112   2.435       .  S
C113        O117   1.262       .  A
C113        C897   1.487       .  S
O118        C121   1.265       .  A
O118       Cd123   2.483       .  S
C119        O128   1.263       .  A
C119        O124   1.267       .  A
C119        C936   1.480       .  S
O120        C126   1.269       .  A
O120       Cd123   2.477       .  S
C121        O129   1.263       .  A
C121        C873   1.478       .  S
C122        O127   1.268       .  A
C122        O125   1.263       .  A
C122        C888   1.487       .  S
Cd123       O130   2.440       .  S
Cd123       O129   2.458       .  S
Cd123       O128   2.431       .  S
Cd123       O124   2.484       .  S
Cd123       O127   2.483       .  S
Cd123       O125   2.452       .  S
C126        O130   1.266       .  A
C126        C864   1.483       .  S
O131        C134   1.269       .  A
O131       Cd136   2.512       .  S
C132        O141   1.263       .  A
C132        O137   1.269       .  A
C132       C1104   1.485       .  S
O133        C139   1.263       .  A
O133       Cd136   2.457       .  S
C134        O142   1.262       .  A
C134        C885   1.488       .  S
C135        O140   1.265       .  A
C135        O138   1.265       .  A
C135        C849   1.476       .  S
Cd136       O143   2.471       .  S
Cd136       O142   2.430       .  S
Cd136       O141   2.440       .  S
Cd136       O137   2.483       .  S
Cd136       O140   2.448       .  S
Cd136       O138   2.449       .  S
C139        O143   1.264       .  A
C139        C837   1.474       .  S
O144        C147   1.267       .  A
O144       Cd149   2.487       .  S
C145        O154   1.265       .  A
C145        O150   1.269       .  A
C145        C921   1.487       .  S
O146        C152   1.267       .  A
O146       Cd149   2.451       .  S
C147        O155   1.263       .  A
C147       C1140   1.485       .  S
C148        O153   1.266       .  A
C148        O151   1.265       .  A
C148        C825   1.482       .  S
Cd149       O156   2.449       .  S
Cd149       O155   2.457       .  S
Cd149       O154   2.461       .  S
Cd149       O150   2.470       .  S
Cd149       O153   2.457       .  S
Cd149       O151   2.465       .  S
C152        O156   1.265       .  A
C152        C852   1.476       .  S
O157        C160   1.269       .  A
O157       Cd162   2.491       .  S
C158        O167   1.264       .  A
C158        O163   1.268       .  A
C158        C801   1.488       .  S
O159        C165   1.266       .  A
O159       Cd162   2.478       .  S
C160        O168   1.265       .  A
C160        C789   1.488       .  S
C161        O166   1.265       .  A
C161        O164   1.265       .  A
C161        C840   1.475       .  S
Cd162       O169   2.438       .  S
Cd162       O168   2.450       .  S
Cd162       O167   2.467       .  S
Cd162       O163   2.482       .  S
Cd162       O166   2.467       .  S
Cd162       O164   2.459       .  S
C165        O169   1.263       .  A
C165        C813   1.480       .  S
O170        C173   1.266       .  A
O170       Cd175   2.475       .  S
C171        O180   1.265       .  A
C171        O176   1.267       .  A
C171        C777   1.481       .  S
O172        C178   1.265       .  A
O172       Cd175   2.446       .  S
C173        O181   1.262       .  A
C173        C768   1.482       .  S
C174        O179   1.265       .  A
C174        O177   1.266       .  A
C174        C828   1.478       .  S
Cd175       O182   2.463       .  S
Cd175       O181   2.451       .  S
Cd175       O180   2.446       .  S
Cd175       O176   2.458       .  S
Cd175       O179   2.443       .  S
Cd175       O177   2.464       .  S
C178        O182   1.264       .  A
C178        C816   1.473       .  S
O183        C186   1.264       .  A
O183       Cd188   2.446       .  S
C184        O193   1.265       .  A
C184        O189   1.266       .  A
C184        C753   1.479       .  S
O185        C191   1.266       .  A
O185       Cd188   2.470       .  S
C186        O194   1.265       .  A
C186        C909   1.481       .  S
C187        O192   1.268       .  A
C187        O190   1.266       .  A
C187        C780   1.481       .  S
Cd188       O195   2.451       .  S
Cd188       O194   2.486       .  S
Cd188       O193   2.464       .  S
Cd188       O189   2.458       .  S
Cd188       O192   2.464       .  S
Cd188       O190   2.430       .  S
C191        O195   1.262       .  A
C191        C960   1.480       .  S
O196        C199   1.265       .  A
O196       Cd201   2.473       .  S
C197        O206   1.265       .  A
C197        O202   1.265       .  A
C197        C876   1.478       .  S
O198        C204   1.268       .  A
O198       Cd201   2.499       .  S
C199        O207   1.264       .  A
C199        C756   1.479       .  S
C200        O205   1.270       .  A
C200        O203   1.264       .  A
C200        C948   1.488       .  S
Cd201       O208   2.458       .  S
Cd201       O207   2.445       .  S
Cd201       O206   2.468       .  S
Cd201       O202   2.468       .  S
Cd201       O205   2.506       .  S
Cd201       O203   2.442       .  S
C204        O208   1.264       .  A
C204        C804   1.489       .  S
O209        C212   1.264       .  A
O209       Cd214   2.458       .  S
C210        O219   1.264       .  A
C210        O215   1.266       .  A
C210        C741   1.479       .  S
O211        C217   1.270       .  A
O211       Cd214   2.485       .  S
C212        O220   1.265       .  A
C212        C717   1.476       .  S
C213        O218   1.270       .  A
C213        O216   1.262       .  A
C213        C732   1.483       .  S
Cd214       O221   2.449       .  S
Cd214       O220   2.465       .  S
Cd214       O219   2.441       .  S
Cd214       O215   2.461       .  S
Cd214       O218   2.497       .  S
Cd214       O216   2.417       .  S
C217        O221   1.265       .  A
C217       C1044   1.487       .  S
O222        C225   1.264       .  A
O222       Cd227   2.483       .  S
C223        O232   1.263       .  A
C223        O228   1.266       .  A
C223        C744   1.478       .  S
O224        C230   1.269       .  A
O224       Cd227   2.480       .  S
C225        O233   1.263       .  A
C225        C693   1.476       .  S
C226        O231   1.269       .  A
C226        O229   1.264       .  A
C226        C705   1.486       .  S
Cd227       O234   2.446       .  S
Cd227       O233   2.467       .  S
Cd227       O232   2.442       .  S
Cd227       O228   2.476       .  S
Cd227       O231   2.486       .  S
Cd227       O229   2.449       .  S
C230        O234   1.265       .  A
C230       C1068   1.484       .  S
O235        C238   1.269       .  A
O235       Cd240   2.473       .  S
C236        O245   1.266       .  A
C236        O241   1.263       .  A
C236        C657   1.487       .  S
O237        C243   1.264       .  A
O237       Cd240   2.428       .  S
C238        O246   1.264       .  A
C238        C729   1.483       .  S
C239        O244   1.264       .  A
C239        O242   1.264       .  A
C239        C681   1.479       .  S
Cd240       O247   2.462       .  S
Cd240       O246   2.440       .  S
Cd240       O245   2.489       .  S
Cd240       O241   2.459       .  S
Cd240       O244   2.455       .  S
Cd240       O242   2.451       .  S
C243        O247   1.267       .  A
C243        C672   1.476       .  S
O248        C251   1.269       .  A
O248       Cd253   2.489       .  S
C249        O258   1.265       .  A
C249        O254   1.269       .  A
C249        C633   1.488       .  S
O250        C256   1.264       .  A
O250       Cd253   2.483       .  S
C251        O259   1.264       .  A
C251        C708   1.488       .  S
C252        O257   1.266       .  A
C252        O255   1.264       .  A
C252        C684   1.474       .  S
Cd253       O260   2.468       .  S
Cd253       O259   2.457       .  S
Cd253       O258   2.450       .  S
Cd253       O254   2.498       .  S
Cd253       O257   2.469       .  S
Cd253       O255   2.440       .  S
C256        O260   1.264       .  A
C256        C648   1.481       .  S
O261        C264   1.265       .  A
O261       Cd266   2.458       .  S
C262        O271   1.264       .  A
C262        O267   1.265       .  A
C262        C621   1.479       .  S
O263        C269   1.267       .  A
O263       Cd266   2.487       .  S
C264        O272   1.265       .  A
C264        C696   1.474       .  S
C265        O270   1.268       .  A
C265        O268   1.264       .  A
C265        C612   1.487       .  S
Cd266       O273   2.430       .  S
Cd266       O272   2.459       .  S
Cd266       O271   2.449       .  S
Cd266       O267   2.476       .  S
Cd266       O270   2.477       .  S
Cd266       O268   2.458       .  S
C269        O273   1.264       .  A
C269        C600   1.482       .  S
O274        C277   1.265       .  A
O274       Cd279   2.472       .  S
C275        O284   1.263       .  A
C275        O280   1.267       .  A
C275        C624   1.480       .  S
O276        C282   1.269       .  A
O276       Cd279   2.484       .  S
C277        O285   1.265       .  A
C277        C720   1.474       .  S
C278        O283   1.268       .  A
C278        O281   1.263       .  A
C278        C585   1.480       .  S
Cd279       O286   2.441       .  S
Cd279       O285   2.461       .  S
Cd279       O284   2.450       .  S
Cd279       O280   2.472       .  S
Cd279       O283   2.482       .  S
Cd279       O281   2.438       .  S
C282        O286   1.265       .  A
C282        C576   1.484       .  S
O287        C290   1.268       .  A
O287       Cd292   2.451       .  S
C288        O297   1.263       .  A
C288        O293   1.266       .  A
C288       C1008   1.483       .  S
O289        C295   1.265       .  A
O289       Cd292   2.429       .  S
C290        O298   1.266       .  A
C290        C588   1.479       .  S
C291        O296   1.265       .  A
C291        O294   1.263       .  A
C291        C564   1.478       .  S
Cd292       O299   2.465       .  S
Cd292       O298   2.453       .  S
Cd292       O297   2.458       .  S
Cd292       O293   2.486       .  S
Cd292       O296   2.457       .  S
Cd292       O294   2.455       .  S
C295        O299   1.266       .  A
C295        C669   1.477       .  S
O300        C303   1.269       .  A
O300       Cd305   2.493       .  S
C301        O310   1.263       .  A
C301        O306   1.269       .  A
C301        C609   1.488       .  S
O302        C308   1.266       .  A
O302       Cd305   2.473       .  S
C303        O311   1.265       .  A
C303        C984   1.487       .  S
C304        O309   1.264       .  A
C304        O307   1.265       .  A
C304        C645   1.475       .  S
Cd305       O312   2.440       .  S
Cd305       O311   2.451       .  S
Cd305       O310   2.446       .  S
Cd305       O306   2.501       .  S
Cd305       O309   2.467       .  S
Cd305       O307   2.469       .  S
C308        O312   1.263       .  A
C308        C561   1.478       .  S
O313        C316   1.265       .  A
O313       Cd318   2.448       .  S
C314        O323   1.267       .  A
C314        O319   1.266       .  A
C314        C525   1.480       .  S
O315        C321   1.268       .  A
O315       Cd318   2.455       .  S
C316        O324   1.264       .  A
C316        C549   1.478       .  S
C317        O322   1.267       .  A
C317        O320   1.262       .  A
C317        C900   1.485       .  S
Cd318       O325   2.458       .  S
Cd318       O324   2.462       .  S
Cd318       O323   2.456       .  S
Cd318       O319   2.437       .  S
Cd318       O322   2.494       .  S
Cd318       O320   2.447       .  S
C321        O325   1.265       .  A
C321        C540   1.484       .  S
O326        C329   1.264       .  A
O326       Cd331   2.442       .  S
C327        O336   1.262       .  A
C327        O332   1.264       .  A
C327        C552   1.476       .  S
O328        C334   1.261       .  A
O328       Cd331   2.468       .  S
C329        O337   1.265       .  A
C329        C501   1.476       .  S
C330        O335   1.268       .  A
C330        O333   1.268       .  A
C330        C513   1.487       .  S
Cd331       O338   2.484       .  S
Cd331       O337   2.468       .  S
Cd331       O336   2.444       .  S
Cd331       O332   2.478       .  S
Cd331       O335   2.460       .  S
Cd331       O333   2.471       .  S
C334        O338   1.265       .  A
C334        C861   1.483       .  S
O339        C342   1.269       .  A
O339       Cd344   2.472       .  S
C340        O349   1.263       .  A
C340        O345   1.268       .  A
C340        C537   1.485       .  S
O341        C347   1.262       .  A
O341       Cd344   2.447       .  S
C342        O350   1.266       .  A
C342        C636   1.488       .  S
C343        O348   1.264       .  A
C343        O346   1.266       .  A
C343        C477   1.478       .  S
Cd344       O351   2.478       .  S
Cd344       O350   2.464       .  S
Cd344       O349   2.439       .  S
Cd344       O345   2.498       .  S
Cd344       O348   2.447       .  S
Cd344       O346   2.471       .  S
C347        O351   1.264       .  A
C347        C492   1.475       .  S
O352        C355   1.268       .  A
O352       Cd357   2.482       .  S
C353        O362   1.264       .  A
C353        O358   1.267       .  A
C353        C516   1.488       .  S
O354        C360   1.265       .  A
O354       Cd357   2.459       .  S
C355        O363   1.266       .  A
C355        C660   1.489       .  S
C356        O361   1.264       .  A
C356        O359   1.267       .  A
C356        C468   1.482       .  S
Cd357       O364   2.434       .  S
Cd357       O363   2.466       .  S
Cd357       O362   2.458       .  S
Cd357       O358   2.490       .  S
Cd357       O361   2.454       .  S
Cd357       O359   2.460       .  S
C360        O364   1.264       .  A
C360        C489   1.477       .  S
O365        C368   1.266       .  A
O365       Cd370   2.487       .  S
C366        O375   1.266       .  A
C366        O371   1.268       .  A
C366        C441   1.487       .  S
O367        C373   1.264       .  A
O367       Cd370   2.462       .  S
C368        O376   1.262       .  A
C368        C792   1.485       .  S
C369        O374   1.265       .  A
C369        O372   1.267       .  A
C369        C480   1.481       .  S
Cd370       O377   2.455       .  S
Cd370       O376   2.465       .  S
Cd370       O375   2.464       .  S
Cd370       O371   2.464       .  S
Cd370       O374   2.430       .  S
Cd370       O372   2.473       .  S
C373        O377   1.263       .  A
C373        C453   1.473       .  S
O378        C381   1.268       .  A
O378       Cd383   2.461       .  S
C379        O388   1.262       .  A
C379        O384   1.266       .  A
C379        C765   1.480       .  S
O380        C386   1.265       .  A
O380       Cd383   2.460       .  S
C381        O389   1.267       .  A
C381        C429   1.488       .  S
C382        O387   1.266       .  A
C382        O385   1.265       .  A
C382        C456   1.476       .  S
Cd383       O390   2.451       .  S
Cd383       O389   2.472       .  S
Cd383       O388   2.449       .  S
Cd383       O384   2.479       .  S
Cd383       O387   2.456       .  S
Cd383       O385   2.435       .  S
C386        O390   1.265       .  A
C386        C465   1.479       .  S
O391        C394   1.263       .  A
O391       Cd396   2.434       .  S
C392        O401   1.264       .  A
C392        O397   1.263       .  A
C392        C417   1.476       .  S
O393        C399   1.265       .  A
O393       Cd396   2.474       .  S
C394        O402   1.267       .  A
C394        C504   1.480       .  S
C395        O400   1.268       .  A
C395        O398   1.265       .  A
C395        C432   1.489       .  S
Cd396       O403   2.460       .  S
Cd396       O402   2.476       .  S
Cd396       O401   2.459       .  S
Cd396       O397   2.463       .  S
Cd396       O400   2.492       .  S
Cd396       O398   2.447       .  S
C399        O403   1.262       .  A
C399        C597   1.482       .  S
O404        C407   1.265       .  A
O404       Cd409   2.465       .  S
C405        O414   1.263       .  A
C405        O410   1.265       .  A
C405        C420   1.477       .  S
O406        C412   1.266       .  A
O406       Cd409   2.471       .  S
C407        O415   1.267       .  A
C407        C528   1.484       .  S
C408        O413   1.266       .  A
C408        O411   1.266       .  A
C408        C444   1.489       .  S
Cd409       O416   2.465       .  S
Cd409       O415   2.468       .  S
Cd409       O414   2.453       .  S
Cd409       O410   2.471       .  S
Cd409       O413   2.486       .  S
Cd409       O411   2.469       .  S
C412        O416   1.263       .  A
C412        C573   1.483       .  S
C417        C418   1.403       .  A
C417        C422   1.410   1_655  A
C418        C419   1.398   1_655  A
C418        H423   1.084       .  S
C419        C420   1.409       .  A
C419        O424   1.371   1_455  S
C420        C421   1.405       .  A
C421        C422   1.399       .  A
C421        H425   1.084       .  S
C422        O426   1.372       .  S
O424        H428   0.992       .  S
O426        H427   0.992       .  S
C429        C430   1.404       .  A
C429        C434   1.413       .  A
C430        C431   1.399       .  A
C430        H435   1.083       .  S
C431        C432   1.412       .  A
C431        O436   1.371       .  S
C432        C433   1.406       .  A
C433        C434   1.405       .  A
C433        H437   1.083       .  S
C434        O438   1.372       .  S
O436        H440   0.992       .  S
O438        H439   0.992       .  S
C441        C442   1.407       .  A
C441        C446   1.411       .  A
C442        C443   1.404       .  A
C442        H447   1.083       .  S
C443        C444   1.413       .  A
C443        O448   1.372       .  S
C444        C445   1.406       .  A
C445        C446   1.400       .  A
C445        H449   1.083       .  S
C446        O450   1.371       .  S
O448        H452   0.992       .  S
O450        H451   0.992       .  S
C453        C454   1.404       .  A
C453        C458   1.407       .  A
C454        C455   1.399       .  A
C454        H459   1.084       .  S
C455        C456   1.410       .  A
C455        O460   1.372       .  S
C456        C457   1.405       .  A
C457        C458   1.396       .  A
C457        H461   1.084       .  S
C458        O462   1.372       .  S
O460        H464   0.992       .  S
O462        H463   0.992       .  S
C465        C466   1.405       .  A
C465        C470   1.409       .  A
C466        C467   1.400       .  A
C466        H471   1.084       .  S
C467        C468   1.413       .  A
C467        O472   1.372       .  S
C468        C469   1.404       .  A
C469        C470   1.398       .  A
C469        H473   1.083       .  S
C470        O474   1.371       .  S
O472        H476   0.992       .  S
O474        H475   0.992       .  S
C477        C478   1.405       .  A
C477        C482   1.409       .  A
C478        C479   1.402   1_545  A
C478        H483   1.084       .  S
C479        C480   1.411       .  A
C479        O484   1.372       .  S
C480        C481   1.405       .  A
C481        C482   1.396   1_565  A
C481        H485   1.083       .  S
C482        O486   1.372       .  S
O484        H488   0.992       .  S
O486        H487   0.992       .  S
C489        C490   1.404       .  A
C489        C494   1.411       .  A
C490        C491   1.395       .  A
C490        H495   1.084       .  S
C491        C492   1.409       .  A
C491        O496   1.372       .  S
C492        C493   1.404       .  A
C493        C494   1.400       .  A
C493        H497   1.084       .  S
C494        O498   1.372       .  S
O496        H500   0.992       .  S
O498        H499   0.992       .  S
C501        C502   1.402       .  A
C501        C506   1.409       .  A
C502        C503   1.396   1_545  A
C502        H507   1.084       .  S
C503        C504   1.411       .  A
C503        O508   1.372       .  S
C504        C505   1.405       .  A
C505        C506   1.401   1_565  A
C505        H509   1.083       .  S
C506        O510   1.371       .  S
O508        H512   0.992       .  S
O510        H511   0.992       .  S
C513        C514   1.407       .  A
C513        C518   1.411       .  A
C514        C515   1.403       .  A
C514        H519   1.083       .  S
C515        C516   1.411       .  A
C515        O520   1.371       .  S
C516        C517   1.406       .  A
C517        C518   1.401       .  A
C517        H521   1.083       .  S
C518        O522   1.372       .  S
O520        H524   0.992       .  S
O522        H523   0.992       .  S
C525        C526   1.405       .  A
C525        C530   1.410       .  A
C526        C527   1.399       .  A
C526        H531   1.084       .  S
C527        C528   1.412       .  A
C527        O532   1.372       .  S
C528        C529   1.405       .  A
C529        C530   1.400       .  A
C529        H533   1.083       .  S
C530        O534   1.372       .  S
O532        H536   0.992       .  S
O534        H535   0.992       .  S
C537        C538   1.406       .  A
C537        C542   1.411       .  A
C538        C539   1.397       .  A
C538        H543   1.083       .  S
C539        C540   1.409       .  A
C539        O544   1.371       .  S
C540        C541   1.408       .  A
C541        C542   1.403       .  A
C541        H545   1.083       .  S
C542        O546   1.372       .  S
O544        H548   0.992       .  S
O546        H547   0.992       .  S
C549        C550   1.403       .  A
C549        C554   1.411       .  A
C550        C551   1.396   1_455  A
C550        H555   1.083       .  S
C551        C552   1.409       .  A
C551        O556   1.372       .  S
C552        C553   1.404   1_655  A
C553        C554   1.401       .  A
C553        H557   1.084       .  S
C554        O558   1.372       .  S
O556        H560   0.992       .  S
O558        H559   0.992       .  S
C561        C562   1.404       .  A
C561        C566   1.410   1_455  A
C562        C563   1.400       .  A
C562        H567   1.084       .  S
C563        C564   1.411   1_455  A
C563        O568   1.372       .  S
C564        C565   1.403       .  A
C565        C566   1.397       .  A
C565        H569   1.084       .  S
C566        O570   1.372       .  S
O568        H572   0.992       .  S
O570        H571   0.992       .  S
C573        C574   1.403       .  A
C573        C578   1.412       .  A
C574        C575   1.399       .  A
C574        H579   1.083       .  S
C575        C576   1.412       .  A
C575        O580   1.371       .  S
C576        C577   1.405       .  A
C577        C578   1.402       .  A
C577        H581   1.083       .  S
C578        O582   1.372       .  S
O580        H584   0.992       .  S
O582        H583   0.992       .  S
C585        C586   1.404       .  A
C585        C590   1.411       .  A
C586        C587   1.401   1_455  A
C586        H591   1.083       .  S
C587        C588   1.412       .  A
C587        O592   1.372       .  S
C588        C589   1.403   1_655  A
C589        C590   1.397       .  A
C589        H593   1.084       .  S
C590        O594   1.372       .  S
O592        H596   0.992       .  S
O594        H595   0.992       .  S
C597        C598   1.407       .  A
C597        C602   1.409       .  A
C598        C599   1.401       .  A
C598        H603   1.083       .  S
C599        C600   1.410       .  A
C599        O604   1.371       .  S
C600        C601   1.405       .  A
C601        C602   1.397       .  A
C601        H605   1.083       .  S
C602        O606   1.371       .  S
O604        H608   0.992       .  S
O606        H607   0.992       .  S
C609        C610   1.405   1_545  A
C609        C614   1.414       .  A
C610        C611   1.403   1_455  A
C610        H615   1.083       .  S
C611        C612   1.413       .  A
C611        O616   1.372       .  S
C612        C613   1.404   1_665  A
C613        C614   1.400       .  A
C613        H617   1.083   1_455  S
C614        O618   1.371       .  S
O616        H620   0.992       .  S
O618        H619   0.992       .  S
C621        C622   1.404       .  A
C621        C626   1.410   1_655  A
C622        C623   1.401       .  A
C622        H627   1.084       .  S
C623        C624   1.412   1_655  A
C623        O628   1.372       .  S
C624        C625   1.403       .  A
C625        C626   1.398       .  A
C625        H629   1.083       .  S
C626        O630   1.372       .  S
O628        H632   0.992       .  S
O630        H631   0.992       .  S
C633        C634   1.406       .  A
C633        C638   1.411       .  A
C634        C635   1.401       .  A
C634        H639   1.083       .  S
C635        C636   1.411       .  A
C635        O640   1.372       .  S
C636        C637   1.408       .  A
C637        C638   1.404       .  A
C637        H641   1.083       .  S
C638        O642   1.371       .  S
O640        H644   0.992       .  S
O642        H643   0.991       .  S
C645        C646   1.403       .  A
C645        C650   1.407       .  A
C646        C647   1.402       .  A
C646        H651   1.084       .  S
C647        C648   1.411       .  A
C647        O652   1.371       .  S
C648        C649   1.405       .  A
C649        C650   1.400       .  A
C649        H653   1.084       .  S
C650        O654   1.372       .  S
O652        H656   0.992       .  S
O654        H655   0.992       .  S
C657        C658   1.406       .  A
C657        C662   1.411       .  A
C658        C659   1.401       .  A
C658        H663   1.083       .  S
C659        C660   1.411       .  A
C659        O664   1.371       .  S
C660        C661   1.407       .  A
C661        C662   1.402       .  A
C661        H665   1.083       .  S
C662        O666   1.372       .  S
O664        H668   0.992       .  S
O666        H667   0.992       .  S
C669        C670   1.403       .  A
C669        C674   1.410       .  A
C670        C671   1.395       .  A
C670        H675   1.084       .  S
C671        C672   1.410       .  A
C671        O676   1.372       .  S
C672        C673   1.404       .  A
C673        C674   1.400       .  A
C673        H677   1.083       .  S
C674        O678   1.371       .  S
O676        H680   0.992       .  S
O678        H679   0.992       .  S
C681        C682   1.406       .  A
C681        C686   1.411       .  A
C682        C683   1.399       .  A
C682        H687   1.083       .  S
C683        C684   1.407       .  A
C683        O688   1.372       .  S
C684        C685   1.403       .  A
C685        C686   1.398       .  A
C685        H689   1.084       .  S
C686        O690   1.372       .  S
O688        H692   0.992       .  S
O690        H691   0.992       .  S
C693        C694   1.403       .  A
C693        C698   1.409       .  A
C694        C695   1.401       .  A
C694        H699   1.084       .  S
C695        C696   1.409       .  A
C695        O700   1.372       .  S
C696        C697   1.402       .  A
C697        C698   1.399       .  A
C697        H701   1.084       .  S
C698        O702   1.371       .  S
O700        H704   0.991       .  S
O702        H703   0.992       .  S
C705        C706   1.404   1_565  A
C705        C710   1.413       .  A
C706        C707   1.402       .  A
C706        H711   1.083       .  S
C707        C708   1.414       .  A
C707        O712   1.371       .  S
C708        C709   1.404   1_545  A
C709        C710   1.401       .  A
C709        H713   1.083       .  S
C710        O714   1.372       .  S
O712        H716   0.992       .  S
O714        H715   0.992       .  S
C717        C718   1.404       .  A
C717        C722   1.409       .  A
C718        C719   1.400       .  A
C718        H723   1.084       .  S
C719        C720   1.408       .  A
C719        O724   1.372       .  S
C720        C721   1.403       .  A
C721        C722   1.401       .  A
C721        H725   1.084       .  S
C722        O726   1.372       .  S
O724        H728   0.991       .  S
O726        H727   0.992       .  S
C729        C730   1.402       .  A
C729        C734   1.414       .  A
C730        C731   1.398       .  A
C730        H735   1.083       .  S
C731        C732   1.414       .  A
C731        O736   1.372       .  S
C732        C733   1.403       .  A
C733        C734   1.401       .  A
C733        H737   1.083       .  S
C734        O738   1.371       .  S
O736        H740   0.992       .  S
O738        H739   0.992       .  S
C741        C742   1.406       .  A
C741        C746   1.409       .  A
C742        C743   1.399       .  A
C742        H747   1.083       .  S
C743        C744   1.408       .  A
C743        O748   1.372       .  S
C744        C745   1.405       .  A
C745        C746   1.398       .  A
C745        H749   1.084       .  S
C746        O750   1.372       .  S
O748        H752   0.992       .  S
O750        H751   0.992       .  S
C753        C754   1.406       .  A
C753        C758   1.409       .  A
C754        C755   1.401       .  A
C754        H759   1.084       .  S
C755        C756   1.411       .  A
C755        O760   1.372       .  S
C756        C757   1.404       .  A
C757        C758   1.397       .  A
C757        H761   1.084       .  S
C758        O762   1.372       .  S
O760        H764   0.992       .  S
O762        H763   0.992       .  S
C765        C766   1.403       .  A
C765        C770   1.412       .  A
C766        C767   1.399       .  A
C766        H771   1.083       .  S
C767        C768   1.413       .  A
C767        O772   1.371       .  S
C768        C769   1.404       .  A
C769        C770   1.399       .  A
C769        H773   1.083       .  S
C770        O774   1.372       .  S
O772        H776   0.992       .  S
O774        H775   0.992       .  S
C777        C778   1.406   1_554  A
C777        C782   1.410       .  A
C778        C779   1.400       .  A
C778        H783   1.083       .  S
C779        C780   1.411       .  A
C779        O784   1.372       .  S
C780        C781   1.405   1_556  A
C781        C782   1.397       .  A
C781        H785   1.083       .  S
C782        O786   1.371       .  S
O784        H788   0.993       .  S
O786        H787   0.992       .  S
C789        C790   1.405       .  A
C789        C794   1.413       .  A
C790        C791   1.402       .  A
C790        H795   1.083       .  S
C791        C792   1.413       .  A
C791        O796   1.371       .  S
C792        C793   1.403       .  A
C793        C794   1.400       .  A
C793        H797   1.083       .  S
C794        O798   1.371       .  S
O796        H800   0.992       .  S
O798        H799   0.992       .  S
C801        C802   1.404   1_565  A
C801        C806   1.414   1_554  A
C802        C803   1.401       .  A
C802        H807   1.083       .  S
C803        C804   1.414   1_554  A
C803        O808   1.372       .  S
C804        C805   1.405   1_545  A
C805        C806   1.403       .  A
C805        H809   1.083       .  S
C806        O810   1.372       .  S
O808        H812   0.992       .  S
O810        H811   0.992       .  S
C813        C814   1.406       .  A
C813        C818   1.412       .  A
C814        C815   1.401       .  A
C814        H819   1.083       .  S
C815        C816   1.408       .  A
C815        O820   1.372       .  S
C816        C817   1.401       .  A
C817        C818   1.396       .  A
C817        H821   1.084       .  S
C818        O822   1.372       .  S
O820        H824   0.992       .  S
O822        H823   0.992       .  S
C825        C826   1.405       .  A
C825        C830   1.412       .  A
C826        C827   1.398   1_556  A
C826        H831   1.083       .  S
C827        C828   1.409       .  A
C827        O832   1.372       .  S
C828        C829   1.404       .  A
C829        C830   1.401   1_554  A
C829        H833   1.084       .  S
C830        O834   1.371       .  S
O832        H836   0.992   1_554  S
O834        H835   0.992       .  S
C837        C838   1.404       .  A
C837        C842   1.408   1_556  A
C838        C839   1.401       .  A
C838        H843   1.084       .  S
C839        C840   1.409   1_556  A
C839        O844   1.372       .  S
C840        C841   1.403       .  A
C841        C842   1.398       .  A
C841        H845   1.084       .  S
C842        O846   1.372       .  S
O844        H848   0.992       .  S
O846        H847   0.991       .  S
C849        C850   1.404       .  A
C849        C854   1.410   1_455  A
C850        C851   1.398       .  A
C850        H855   1.084       .  S
C851        C852   1.410   1_455  A
C851        O856   1.372       .  S
C852        C853   1.403       .  A
C853        C854   1.398       .  A
C853        H857   1.084       .  S
C854        O858   1.372       .  S
O856        H860   0.992       .  S
O858        H859   0.992       .  S
C861        C862   1.403       .  A
C861        C866   1.412       .  A
C862        C863   1.399       .  A
C862        H867   1.083       .  S
C863        C864   1.412       .  A
C863        O868   1.371       .  S
C864        C865   1.404       .  A
C865        C866   1.402       .  A
C865        H869   1.083       .  S
C866        O870   1.372       .  S
O868        H872   0.992       .  S
O870        H871   0.992       .  S
C873        C874   1.403   1_554  A
C873        C878   1.410       .  A
C874        C875   1.401       .  A
C874        H879   1.084       .  S
C875        C876   1.410       .  A
C875        O880   1.371       .  S
C876        C877   1.403   1_556  A
C877        C878   1.401       .  A
C877        H881   1.084       .  S
C878        O882   1.372       .  S
O880        H884   0.992       .  S
O882        H883   0.991       .  S
C885        C886   1.404   1_565  A
C885        C890   1.414   1_556  A
C886        C887   1.403       .  A
C886        H891   1.083       .  S
C887        C888   1.414   1_456  A
C887        O892   1.372   1_455  S
C888        C889   1.403       .  A
C889        C890   1.399   1_645  A
C889        H893   1.083   1_545  S
C890        O894   1.371       .  S
O892        H896   0.992       .  S
O894        H895   0.992       .  S
C897        C898   1.408       .  A
C897        C902   1.410       .  A
C898        C899   1.401       .  A
C898        H903   1.083       .  S
C899        C900   1.409       .  A
C899        O904   1.372       .  S
C900        C901   1.407       .  A
C901        C902   1.401       .  A
C901        H905   1.083       .  S
C902        O906   1.371       .  S
O904        H908   0.992       .  S
O906        H907   0.992       .  S
C909        C910   1.403       .  A
C909        C914   1.410       .  A
C910        C911   1.397       .  A
C910        H915   1.084       .  S
C911        C912   1.412   1_556  A
C911        O916   1.372   1_556  S
C912        C913   1.406       .  A
C913        C914   1.403   1_554  A
C913        H917   1.083       .  S
C914        O918   1.372       .  S
O916        H920   0.992       .  S
O918        H919   0.992       .  S
C921        C922   1.403       .  A
C921        C926   1.414   1_656  A
C922        C923   1.399   1_655  A
C922        H927   1.083       .  S
C923        C924   1.414   1_556  A
C923        O928   1.372       .  S
C924        C925   1.405       .  A
C925        C926   1.403       .  A
C925        H929   1.083       .  S
C926        O930   1.371       .  S
O928        H932   0.992   1_455  S
O930        H931   0.992       .  S
C933        C934   1.401       .  A
C933        C938   1.410   1_455  A
C934        C935   1.396       .  A
C934        H939   1.084       .  S
C935        C936   1.412   1_455  A
C935        O940   1.372       .  S
C936        C937   1.405       .  A
C937        C938   1.401       .  A
C937        H941   1.083       .  S
C938        O942   1.372       .  S
O940        H944   0.992       .  S
O942        H943   0.992       .  S
C945        C946   1.404       .  A
C945        C950   1.414       .  A
C946        C947   1.402       .  A
C946        H951   1.083       .  S
C947        C948   1.413       .  A
C947        O952   1.372       .  S
C948        C949   1.404       .  A
C949        C950   1.404       .  A
C949        H953   1.083       .  S
C950        O954   1.372       .  S
O952        H956   0.992       .  S
O954        H955   0.992       .  S
C957        C958   1.405       .  A
C957        C962   1.412       .  A
C958        C959   1.401       .  A
C958        H963   1.083       .  S
C959        C960   1.412       .  A
C959        O964   1.372       .  S
C960        C961   1.402       .  A
C961        C962   1.398       .  A
C961        H965   1.084       .  S
C962        O966   1.371       .  S
O964        H968   0.992       .  S
O966        H967   0.992       .  S
C969        C970   1.405       .  A
C969        C974   1.408       .  A
C970        C971   1.401       .  A
C970        H975   1.084       .  S
C971        C972   1.410       .  A
C971        O976   1.371       .  S
C972        C973   1.406       .  A
C973        C974   1.400       .  A
C973        H977   1.083       .  S
C974        O978   1.371       .  S
O976        H980   0.992       .  S
O978        H979   0.992       .  S
C981        C982   1.404       .  A
C981        C986   1.414       .  A
C982        C983   1.399       .  A
C982        H987   1.083       .  S
C983        C984   1.412       .  A
C983        O988   1.371       .  S
C984        C985   1.405       .  A
C985        C986   1.404       .  A
C985        H989   1.083       .  S
C986        O990   1.372       .  S
O988        H992   0.992       .  S
O990        H991   0.992       .  S
C993        C994   1.407       .  A
C993        C998   1.410       .  A
C994        C995   1.401       .  A
C994        H999   1.083       .  S
C995        C996   1.410       .  A
C995       O1000   1.371       .  S
C996        C997   1.408       .  A
C997        C998   1.402       .  A
C997       H1001   1.083       .  S
C998       O1002   1.371       .  S
O1000      H1004   0.992       .  S
O1002      H1003   0.992       .  S
C1005      C1006   1.407       .  A
C1005      C1010   1.411       .  A
C1006      C1007   1.400       .  A
C1006      H1011   1.083       .  S
C1007      C1008   1.409       .  A
C1007      O1012   1.372       .  S
C1008      C1009   1.406       .  A
C1009      C1010   1.402       .  A
C1009      H1013   1.084       .  S
C1010      O1014   1.372       .  S
O1012      H1016   0.992       .  S
O1014      H1015   0.992       .  S
C1017      C1018   1.403       .  A
C1017      C1022   1.413       .  A
C1018      C1019   1.400       .  A
C1018      H1023   1.083       .  S
C1019      C1020   1.414       .  A
C1019      O1024   1.372       .  S
C1020      C1021   1.403       .  A
C1021      C1022   1.400       .  A
C1021      H1025   1.083       .  S
C1022      O1026   1.372       .  S
O1024      H1028   0.992       .  S
O1026      H1027   0.992       .  S
C1029      C1030   1.403       .  A
C1029      C1034   1.410       .  A
C1030      C1031   1.396   1_655  A
C1030      H1035   1.084       .  S
C1031      C1032   1.411       .  A
C1031      O1036   1.372       .  S
C1032      C1033   1.404       .  A
C1033      C1034   1.400   1_455  A
C1033      H1037   1.083       .  S
C1034      O1038   1.372       .  S
O1036      H1040   0.992       .  S
O1038      H1039   0.992       .  S
C1041      C1042   1.406       .  A
C1041      C1046   1.410       .  A
C1042      C1043   1.400       .  A
C1042      H1047   1.083       .  S
C1043      C1044   1.410       .  A
C1043      O1048   1.371       .  S
C1044      C1045   1.408       .  A
C1045      C1046   1.401       .  A
C1045      H1049   1.083       .  S
C1046      O1050   1.372       .  S
O1048      H1052   0.992       .  S
O1050      H1051   0.992       .  S
C1053      C1054   1.402       .  A
C1053      C1058   1.410       .  A
C1054      C1055   1.400       .  A
C1054      H1059   1.084       .  S
C1055      C1056   1.410       .  A
C1055      O1060   1.372       .  S
C1056      C1057   1.404       .  A
C1057      C1058   1.403       .  A
C1057      H1061   1.084       .  S
C1058      O1062   1.371       .  S
O1060      H1064   0.991       .  S
O1062      H1063   0.992       .  S
C1065      C1066   1.405       .  A
C1065      C1070   1.413       .  A
C1066      C1067   1.399       .  A
C1066      H1071   1.083       .  S
C1067      C1068   1.412       .  A
C1067      O1072   1.372       .  S
C1068      C1069   1.404       .  A
C1069      C1070   1.402       .  A
C1069      H1073   1.083       .  S
C1070      O1074   1.371       .  S
O1072      H1076   0.992       .  S
O1074      H1075   0.992       .  S
C1077      C1078   1.405       .  A
C1077      C1082   1.410       .  A
C1078      C1079   1.402   1_565  A
C1078      H1083   1.083       .  S
C1079      C1080   1.411       .  A
C1079      O1084   1.371       .  S
C1080      C1081   1.404       .  A
C1081      C1082   1.397   1_545  A
C1081      H1085   1.083       .  S
C1082      O1086   1.372       .  S
O1084      H1088   0.992       .  S
O1086      H1087   0.992       .  S
C1089      C1090   1.407       .  A
C1089      C1094   1.410       .  A
C1090      C1091   1.400       .  A
C1090      H1095   1.083       .  S
C1091      C1092   1.407       .  A
C1091      O1096   1.372       .  S
C1092      C1093   1.403       .  A
C1093      C1094   1.397       .  A
C1093      H1097   1.084       .  S
C1094      O1098   1.372       .  S
O1096      H1100   0.992       .  S
O1098      H1099   0.992       .  S
C1101      C1102   1.404       .  A
C1101      C1106   1.413       .  A
C1102      C1103   1.401       .  A
C1102      H1107   1.083       .  S
C1103      C1104   1.414       .  A
C1103      O1108   1.372       .  S
C1104      C1105   1.403       .  A
C1105      C1106   1.400       .  A
C1105      H1109   1.083       .  S
C1106      O1110   1.371       .  S
O1108      H1112   0.992       .  S
O1110      H1111   0.992       .  S
C1113      C1114   1.405       .  A
C1113      C1118   1.411       .  A
C1114      C1115   1.399   1_565  A
C1114      H1119   1.083       .  S
C1115      C1116   1.410       .  A
C1115      O1120   1.372       .  S
C1116      C1117   1.403       .  A
C1117      C1118   1.399   1_545  A
C1117      H1121   1.084       .  S
C1118      O1122   1.371       .  S
O1120      H1124   0.992       .  S
O1122      H1123   0.992       .  S
C1125      C1126   1.404       .  A
C1125      C1130   1.413       .  A
C1126      C1127   1.401       .  A
C1126      H1131   1.083       .  S
C1127      C1128   1.413       .  A
C1127      O1132   1.372       .  S
C1128      C1129   1.403       .  A
C1129      C1130   1.400       .  A
C1129      H1133   1.083       .  S
C1130      O1134   1.372       .  S
O1132      H1136   0.992       .  S
O1134      H1135   0.992       .  S
C1137      C1138   1.405       .  A
C1137      C1142   1.410       .  A
C1138      C1139   1.400       .  A
C1138      H1143   1.083       .  S
C1139      C1140   1.410       .  A
C1139      O1144   1.371       .  S
C1140      C1141   1.407       .  A
C1141      C1142   1.400       .  A
C1141      H1145   1.083       .  S
C1142      O1146   1.372       .  S
O1144      H1148   0.992       .  S
O1146      H1147   0.992       .  S
C1149      C1150   1.404       .  A
C1149      C1154   1.412       .  A
C1150      C1151   1.396       .  A
C1150      H1155   1.083       .  S
C1151      C1152   1.410       .  A
C1151      O1156   1.372       .  S
C1152      C1153   1.407       .  A
C1153      C1154   1.404       .  A
C1153      H1157   1.083       .  S
C1154      O1158   1.372       .  S
O1156      H1160   0.992       .  S
O1158      H1159   0.992       .  S
C1161      C1162   1.403       .  A
C1161      C1166   1.413       .  A
C1162      C1163   1.399       .  A
C1162      H1167   1.083       .  S
C1163      C1164   1.413       .  A
C1163      O1168   1.372       .  S
C1164      C1165   1.404       .  A
C1165      C1166   1.400       .  A
C1165      H1169   1.083       .  S
C1166      O1170   1.372       .  S
O1168      H1172   0.992       .  S
O1170      H1171   0.992       .  S
C1173      C1174   1.405       .  A
C1173      C1178   1.409   1_655  A
C1174      C1175   1.398   1_655  A
C1174      H1179   1.084       .  S
C1175      C1176   1.408       .  A
C1175      O1180   1.372       .  S
C1176      C1177   1.405       .  A
C1177      C1178   1.399       .  A
C1177      H1181   1.084       .  S
C1178      O1182   1.372       .  S
O1180      H1184   0.992   1_455  S
O1182      H1183   0.992       .  S
