geometry optimzed in LAMMPS
_audit_creation_date              2020-12-01 
_audit_creation_method            'lammps2cif' 
_symmetry_space_group_name_H-M    'P1' 
_symmetry_Int_Tables_number       1 
_symmetry_cell_setting            triclinic 
loop_ 
_symmetry_equiv_pos_as_xyz 
  x,y,z 
_cell_length_a                    31.60375587 
_cell_length_b                    29.31602402511797 
_cell_length_c                    30.411569641475886 
_cell_angle_alpha                 90.02240676354877 
_cell_angle_beta                  89.99816129793086 
_cell_angle_gamma                 89.95715869311235 
loop_ 
_atom_site_label 
_atom_site_type_symbol 
_atom_site_fract_x 
_atom_site_fract_y 
_atom_site_fract_z 
_atom_site_charge 
N1          N  0.04496983  0.05000212  0.07980453    -0.01200
N2          N  0.07682127  0.05462023  0.10647666    -0.53300
N3          N  0.45082102  0.08134586  0.04944834    -0.00900
N4          N  0.41851104  0.10849316  0.05410802    -0.55500
N5          N  0.45115898  0.05004828  0.07980672    -0.00500
N6          N  0.41932359  0.05473298  0.10650046    -0.53300
N7          N  0.04529025  0.08131309  0.04945865    -0.00200
N8          N  0.07760295  0.10840884  0.05411202    -0.55800
C9          C  0.09717699  0.09106232  0.08981318     1.00900
C10         C  0.39895880  0.09120019  0.08983090     1.00700
N11         N  0.45114215  0.05004877  0.42248015    -0.01400
N12         N  0.41930533  0.05473211  0.39579374    -0.53900
N13         N  0.04527651  0.08130856  0.45285336     0.00500
N14         N  0.07759111  0.10840186  0.44822106    -0.55200
N15         N  0.04495483  0.04999965  0.42248186    -0.01400
N16         N  0.07680773  0.05461628  0.39581321    -0.54200
N17         N  0.45080622  0.08134853  0.45286017     0.00800
N18         N  0.41849622  0.10849606  0.44822315    -0.55300
Mn19       Mn  0.99803911  0.08425370  0.50115577     1.18400
C20         C  0.39894174  0.09120050  0.41249108     1.03000
C21         C  0.09716495  0.09105600  0.41250511     1.03700
N22         N  0.45119324  0.45000053  0.07976316    -0.01500
N23         N  0.41934109  0.44538357  0.10643274    -0.57800
N24         N  0.04534056  0.41865190  0.04938503    -0.00300
N25         N  0.07765079  0.39150478  0.05402254    -0.58400
N26         N  0.04500394  0.44995164  0.07976516    -0.01000
N27         N  0.07684047  0.44526864  0.10645196    -0.58000
N28         N  0.45087120  0.41869147  0.04939179     0.00100
N29         N  0.41855701  0.39159772  0.05402514    -0.58700
Mn30       Mn  0.99807815  0.00000025  0.08239074     1.10700
C31         C  0.39898386  0.40894351  0.08974155     1.04300
C32         C  0.09720468  0.40880048  0.08975495     1.04300
N33         N  0.04499379  0.44995190  0.42243870    -0.01000
N34         N  0.07682929  0.44526662  0.39574524    -0.56400
N35         N  0.45085828  0.41868726  0.45278651    -0.00300
N36         N  0.41854530  0.39159181  0.44813405    -0.53100
N37         N  0.45117826  0.44999816  0.42244056    -0.01600
N38         N  0.41932620  0.44538021  0.39576924    -0.55900
N39         N  0.04533097  0.41865415  0.45279699    -0.00600
N40         N  0.07764044  0.39150621  0.44813753    -0.53100
Mn41       Mn  0.49806990  0.49999995  0.41985352     1.20200
Mn42       Mn  0.49810790  0.41574654  0.00108834     1.10100
Cl43       Cl  0.99808018  0.00000008  0.00112203    -0.81100
C44         C  0.09719328  0.40879895  0.41241491     1.01300
C45         C  0.39897063  0.40893827  0.41243326     1.01100
C46         C  0.37468027  0.37931228  0.38393109     0.02400
C47         C  0.37469601  0.37931671  0.11822388     0.02400
C48         C  0.28721351  0.33835296  0.02477841     0.07200
C49         C  0.28719262  0.33835126  0.47734344     0.07100
C50         C  0.24808411  0.33638428  0.45546420    -0.13400
C51         C  0.20896548  0.33822498  0.47734238     0.07200
C52         C  0.20898615  0.33822297  0.02477755     0.07100
C53         C  0.24810312  0.33638304  0.04665517    -0.13800
H54         H  0.24810143  0.33672527  0.08241998     0.09200
H55         H  0.24808559  0.33672718  0.41969933     0.09200
C56         C  0.37467868  0.12089189  0.38401369     0.02400
C57         C  0.33720560  0.47553134  0.29176256     0.07200
C58         C  0.33717958  0.02475287  0.29178018     0.07100
C59         C  0.33543100  0.04744989  0.25114601    -0.13400
C60         C  0.33719034  0.02475571  0.21049342     0.07200
C61         C  0.33721592  0.47553390  0.21047226     0.07100
C62         C  0.33548304  0.45283815  0.25110796    -0.13400
H63         H  0.33582037  0.41573310  0.25109282     0.09200
H64         H  0.33573774  0.08455563  0.25116138     0.09200
C65         C  0.37469892  0.12089494  0.11833218     0.02400
C66         C  0.28718436  0.16177354  0.02490597     0.07200
C67         C  0.28716151  0.16177759  0.47747089     0.07100
C68         C  0.24804458  0.16361784  0.45559334    -0.13400
C69         C  0.20893425  0.16164722  0.47747003     0.07200
C70         C  0.20895710  0.16164781  0.02490495     0.07100
C71         C  0.24806570  0.16361390  0.04678425    -0.13400
H72         H  0.24806426  0.16327034  0.08254913     0.09200
H73         H  0.24804626  0.16327627  0.41982848     0.09200
C74         C  0.12145338  0.37910404  0.38391409     0.02400
C75         C  0.47499759  0.29241596  0.35197357     0.07200
C76         C  0.02111922  0.29238555  0.35198020     0.07100
C77         C  0.04183787  0.24995772  0.35036714    -0.13400
C78         C  0.02113315  0.20755981  0.35203718     0.07200
C79         C  0.47501158  0.20759038  0.35203420     0.07100
C80         C  0.45429314  0.25001438  0.35035632    -0.13400
H81         H  0.41983176  0.25003628  0.35015917     0.09200
H82         H  0.07629954  0.24993543  0.35017723     0.09200
C83         C  0.12145326  0.12068290  0.38402342     0.02400
C84         C  0.15896080  0.47524453  0.29175390     0.07200
C85         C  0.15893333  0.02446631  0.29177506     0.07100
C86         C  0.16066527  0.04716199  0.25113932    -0.13400
C87         C  0.15894164  0.02446887  0.21048477     0.07200
C88         C  0.15896771  0.47524741  0.21046707     0.07100
C89         C  0.16071826  0.45255041  0.25110117    -0.13400
H90         H  0.16041157  0.41544462  0.25108573     0.09200
H91         H  0.16032796  0.08426733  0.25115447     0.09200
C92         C  0.12146714  0.12068809  0.11831579     0.02400
C93         C  0.12146719  0.37910911  0.11823294     0.02400
C94         C  0.47501733  0.29244010  0.15020742     0.07200
C95         C  0.02113415  0.29241014  0.15021025     0.07100
C96         C  0.04185297  0.24998640  0.15188852    -0.13400
C97         C  0.02114907  0.20758457  0.15027109     0.07200
C98         C  0.47503266  0.20761435  0.15026453     0.07100
C99         C  0.45431331  0.25004183  0.15187790    -0.13400
H100        H  0.41985166  0.25006351  0.15206849     0.09200
H101        H  0.07631460  0.24996491  0.15208625     0.09200
C102        C  0.05219230  0.33026445  0.14570986    -0.08400
C103        C  0.08603812  0.35040292  0.13830515    -0.09900
C104        C  0.08605883  0.14946957  0.13842264    -0.08400
C105        C  0.05221657  0.16967783  0.14582143    -0.09900
C106        C  0.15309684  0.44401096  0.17295912    -0.08400
C107        C  0.14355006  0.41119495  0.14969647    -0.09900
C108        C  0.14354035  0.08854451  0.14974884    -0.08400
C109        C  0.15307602  0.05571190  0.17299340    -0.09900
C110        C  0.15306283  0.05570750  0.32929199    -0.08400
C111        C  0.14352728  0.08853921  0.35256402    -0.09900
C112        C  0.05220090  0.16966188  0.35653246    -0.08400
C113        C  0.08604257  0.14946105  0.36393817    -0.09900
C114        C  0.14353591  0.41118711  0.35247073    -0.08400
C115        C  0.15308447  0.44400444  0.32923475    -0.09900
C116        C  0.05217600  0.33025002  0.35643429    -0.08400
C117        C  0.08602282  0.35039555  0.36382855    -0.09900
C118        C  0.15078911  0.14489741  0.08683363    -0.08400
C119        C  0.17289368  0.15520084  0.05500795    -0.09900
C120        C  0.17287425  0.15519732  0.44735952    -0.08400
C121        C  0.15077367  0.14489347  0.41552399    -0.09900
C122        C  0.44397635  0.16974946  0.14581077    -0.08400
C123        C  0.41012957  0.14960372  0.13841699    -0.09900
C124        C  0.32326697  0.15542998  0.05501332    -0.08400
C125        C  0.34537944  0.14515207  0.08685008    -0.09900
C126        C  0.35261714  0.08881212  0.14977620    -0.08400
C127        C  0.34306821  0.05599538  0.17301267    -0.09900
C128        C  0.44395310  0.16973642  0.35653521    -0.08400
C129        C  0.41010734  0.14959812  0.36394067    -0.09900
C130        C  0.34536046  0.14515134  0.41551592    -0.08400
C131        C  0.32324646  0.15543211  0.44735991    -0.09900
C132        C  0.34304893  0.05598950  0.32928828    -0.08400
C133        C  0.35259526  0.08880586  0.35255070    -0.09900
C134        C  0.17290094  0.34456871  0.05488819    -0.08400
C135        C  0.15078618  0.35484958  0.08673157    -0.09900
C136        C  0.17288323  0.34456857  0.44723460    -0.08400
C137        C  0.15077183  0.35484663  0.41539704    -0.09900
C138        C  0.35262262  0.41146068  0.14968362    -0.08400
C139        C  0.34308707  0.44429258  0.17295547    -0.09900
C140        C  0.44394896  0.33033767  0.14571321    -0.08400
C141        C  0.41010705  0.35053848  0.13830847    -0.09900
C142        C  0.32327376  0.34480253  0.05488872    -0.08400
C143        C  0.34537492  0.35510614  0.08672393    -0.09900
C144        C  0.34535925  0.35510247  0.41541379    -0.08400
C145        C  0.32325565  0.34479869  0.44724009    -0.09900
C146        C  0.35260626  0.41145567  0.35249853    -0.08400
C147        C  0.34307049  0.44428830  0.32925404    -0.09900
C148        C  0.41008843  0.35053122  0.36382347    -0.08400
C149        C  0.44393053  0.33032299  0.35642395    -0.09900
N150        N  0.04494787  0.05000148  0.57980724    -0.01200
N151        N  0.07679749  0.05461978  0.60648176    -0.53300
N152        N  0.45080148  0.08134836  0.54944720    -0.00900
N153        N  0.41849202  0.10849679  0.55410565    -0.55500
N154        N  0.45113603  0.05004886  0.57980379    -0.00500
N155        N  0.41929888  0.05473352  0.60649518    -0.53300
N156        N  0.04527169  0.08131062  0.54945960    -0.00200
N157        N  0.07758483  0.10840531  0.55411427    -0.55800
C158        C  0.09715576  0.09105996  0.58981779     1.00900
C159        C  0.39893670  0.09120273  0.58982622     1.00700
N160        N  0.45116506  0.05004800  0.92247727    -0.01400
N161        N  0.41932999  0.05473145  0.89578853    -0.53900
N162        N  0.04529500  0.08131108  0.95285434     0.00500
N163        N  0.07760930  0.10840524  0.94822346    -0.55200
N164        N  0.04497668  0.05000028  0.92248459    -0.01400
N165        N  0.07683144  0.05461668  0.89581841    -0.54200
N166        N  0.45082571  0.08134592  0.95285911     0.00800
N167        N  0.41851529  0.10849238  0.94822077    -0.55300
Mn168      Mn  0.99805666  0.08425374  0.00115579     1.18400
C169        C  0.39896384  0.09119794  0.91248638     1.03000
C170        C  0.09718624  0.09105822  0.91250984     1.03700
N171        N  0.45117389  0.45000007  0.57976045    -0.01500
N172        N  0.41931956  0.44538387  0.60642721    -0.57800
N173        N  0.04532475  0.41865403  0.54938620    -0.00300
N174        N  0.07763465  0.39150704  0.55402560    -0.58400
N175        N  0.04498511  0.44995215  0.57976787    -0.01000
N176        N  0.07681937  0.44526828  0.60645756    -0.58000
N177        N  0.45085482  0.41868941  0.54939059     0.00100
N178        N  0.41854043  0.39159545  0.55402210    -0.58700
Mn179      Mn  0.99805564  0.00000017  0.58239070     1.10700
C180        C  0.39896425  0.40894247  0.58973620     1.04300
C181        C  0.09718547  0.40880144  0.58976040     1.04300
N182        N  0.04501264  0.44995139  0.92244136    -0.01000
N183        N  0.07685038  0.44526688  0.89575077    -0.56400
N184        N  0.45087461  0.41868944  0.95278551    -0.00300
N185        N  0.41856189  0.39159418  0.94813122    -0.53100
N186        N  0.45119761  0.44999870  0.92243796    -0.01600
N187        N  0.41934782  0.44537986  0.89576380    -0.55900
N188        N  0.04534669  0.41865200  0.95279804    -0.00600
N189        N  0.07765640  0.39150383  0.94814050    -0.53100
Mn190      Mn  0.49808971  0.50000003  0.91985348     1.20200
Mn191      Mn  0.49809254  0.41574645  0.50108834     1.10100
Cl192      Cl  0.99806075  0.00000005  0.50112208    -0.81100
C193        C  0.09721240  0.40879786  0.91242033     1.01300
C194        C  0.39899030  0.40893930  0.91242801     1.01100
C195        C  0.37470027  0.37931283  0.88392620     0.02400
C196        C  0.37467605  0.37931619  0.61821890     0.02400
C197        C  0.28719106  0.33835083  0.52477819     0.07200
C198        C  0.28721507  0.33835328  0.97734318     0.07100
C199        C  0.24810644  0.33638437  0.95546409    -0.13400
C200        C  0.20898794  0.33822297  0.97734260     0.07200
C201        C  0.20896373  0.33822481  0.52477786     0.07100
C202        C  0.24808083  0.33638267  0.54665519    -0.13800
H203        H  0.24807968  0.33672466  0.58242008     0.09200
H204        H  0.24810743  0.33672737  0.91969955     0.09200
C205        C  0.37470118  0.12088988  0.88400936     0.02400
C206        C  0.33721588  0.47553132  0.79175798     0.07200
C207        C  0.33719099  0.02475280  0.79177557     0.07100
C208        C  0.33543107  0.04744982  0.75114192    -0.13400
C209        C  0.33717901  0.02475564  0.71048881     0.07200
C210        C  0.33720559  0.47553401  0.71046767     0.07100
C211        C  0.33548305  0.45283828  0.75110379    -0.13400
H212        H  0.33582044  0.41573291  0.75108853     0.09200
H213        H  0.33573785  0.08455556  0.75115729     0.09200
C214        C  0.37467650  0.12089695  0.61832790     0.02400
C215        C  0.28715980  0.16177672  0.52490586     0.07200
C216        C  0.28718605  0.16177443  0.97747054     0.07100
C217        C  0.24806898  0.16361702  0.95559325    -0.13400
C218        C  0.20895873  0.16164887  0.97747020     0.07200
C219        C  0.20893262  0.16164606  0.52490522     0.07100
C220        C  0.24804126  0.16361459  0.54678441    -0.13400
H221        H  0.24804027  0.16327097  0.58254896     0.09200
H222        H  0.24807015  0.16327549  0.91982835     0.09200
C223        C  0.12147301  0.37910350  0.88391923     0.02400
C224        C  0.47501888  0.29241566  0.85197247     0.07200
C225        C  0.02114019  0.29238576  0.85198127     0.07100
C226        C  0.04185964  0.24995827  0.85036937    -0.13400
C227        C  0.02115531  0.20756008  0.85203829     0.07200
C228        C  0.47503409  0.20759002  0.85203320     0.07100
C229        C  0.45431511  0.25001372  0.85035419    -0.13400
H230        H  0.41985383  0.25003509  0.85015539     0.09200
H231        H  0.07632099  0.24993653  0.85018116     0.09200
C232        C  0.12147510  0.12068450  0.88402784     0.02400
C233        C  0.15897078  0.47524453  0.79175862     0.07200
C234        C  0.15894420  0.02446629  0.79177954     0.07100
C235        C  0.16066504  0.04716202  0.75114337    -0.13400
C236        C  0.15893049  0.02446893  0.71048935     0.07200
C237        C  0.15895766  0.47524731  0.71047181     0.07100
C238        C  0.16071826  0.45255036  0.75110548    -0.13400
H239        H  0.16041163  0.41544453  0.75109018     0.09200
H240        H  0.16032776  0.08426740  0.75115856     0.09200
C241        C  0.12144534  0.12068639  0.61832017     0.02400
C242        C  0.12144753  0.37910954  0.61823805     0.02400
C243        C  0.47499605  0.29244037  0.65020621     0.07200
C244        C  0.02111319  0.29240982  0.65021143     0.07100
C245        C  0.04183144  0.24998575  0.65189096    -0.13400
C246        C  0.02112700  0.20758418  0.65027224     0.07200
C247        C  0.47501017  0.20761470  0.65026343     0.07100
C248        C  0.45429133  0.25004245  0.65187558    -0.13400
H249        H  0.41982968  0.25006464  0.65206445     0.09200
H250        H  0.07629274  0.24996378  0.65209048     0.09200
C251        C  0.05217194  0.33026388  0.64571221    -0.08400
C252        C  0.08601794  0.35040260  0.63830869    -0.09900
C253        C  0.08603652  0.14946843  0.63842547    -0.08400
C254        C  0.05219422  0.16967705  0.64582327    -0.09900
C255        C  0.15307890  0.44401068  0.67296510    -0.08400
C256        C  0.14352992  0.41119511  0.64970259    -0.09900
C257        C  0.14351806  0.08854350  0.64975443    -0.08400
C258        C  0.15305634  0.05571185  0.67299922    -0.09900
C259        C  0.15308244  0.05570761  0.82929763    -0.08400
C260        C  0.14354951  0.08854021  0.85256950    -0.09900
C261        C  0.05222335  0.16966255  0.85653430    -0.08400
C262        C  0.08606494  0.14946206  0.86394103    -0.09900
C263        C  0.14355603  0.41118687  0.85247687    -0.08400
C264        C  0.15310230  0.44400468  0.82924071    -0.09900
C265        C  0.05219630  0.33025056  0.85643653    -0.08400
C266        C  0.08604292  0.35039577  0.86383215    -0.09900
C267        C  0.15076750  0.14489489  0.58683715    -0.08400
C268        C  0.17287025  0.15519778  0.55500968    -0.09900
C269        C  0.17289772  0.15520044  0.94736119    -0.08400
C270        C  0.15079535  0.14489603  0.91552742    -0.09900
C271        C  0.44395361  0.16975020  0.64580900    -0.08400
C272        C  0.41010684  0.14960491  0.63841423    -0.09900
C273        C  0.32324323  0.15543417  0.55501189    -0.08400
C274        C  0.34535732  0.14515531  0.58684689    -0.09900
C275        C  0.35259419  0.08881340  0.64977067    -0.08400
C276        C  0.34304799  0.05599556  0.67300683    -0.09900
C277        C  0.44397594  0.16973563  0.85653345    -0.08400
C278        C  0.41013020  0.14959684  0.86393789    -0.09900
C279        C  0.34538268  0.14514820  0.91551259    -0.08400
C280        C  0.32327015  0.15542805  0.94735821    -0.09900
C281        C  0.34306928  0.05598922  0.82928244    -0.08400
C282        C  0.35261830  0.08880456  0.85254513    -0.09900
C283        C  0.17287953  0.34457123  0.55489012    -0.08400
C284        C  0.15076664  0.35485114  0.58673547    -0.09900
C285        C  0.17290472  0.34456584  0.94723641    -0.08400
C286        C  0.15079136  0.35484496  0.91540095    -0.09900
C287        C  0.35260218  0.41146048  0.64967767    -0.08400
C288        C  0.34306881  0.44429288  0.67294963    -0.09900
C289        C  0.44392837  0.33033820  0.64571086    -0.08400
C290        C  0.41008665  0.35053871  0.63830490    -0.09900
C291        C  0.32325215  0.34479980  0.55488700    -0.08400
C292        C  0.34535509  0.35510443  0.58672026    -0.09900
C293        C  0.34537898  0.35510435  0.91541013    -0.08400
C294        C  0.32327717  0.34480151  0.94723835    -0.09900
C295        C  0.35262686  0.41145597  0.85249258    -0.08400
C296        C  0.34308885  0.44428810  0.82924820    -0.09900
C297        C  0.41010880  0.35053086  0.86382008    -0.08400
C298        C  0.44395109  0.33032235  0.85642170    -0.09900
N299        N  0.04497607  0.55000220  0.07980484    -0.01200
N300        N  0.07682688  0.55462091  0.10647762    -0.53300
N301        N  0.45082669  0.58134593  0.04944887    -0.00900
N302        N  0.41851616  0.60849258  0.05410840    -0.55500
N303        N  0.45116501  0.55004834  0.07980722    -0.00500
N304        N  0.41932933  0.55473235  0.10650078    -0.53300
N305        N  0.04529669  0.58131310  0.04945892    -0.00200
N306        N  0.07760895  0.60840931  0.05411280    -0.55800
C307        C  0.09718241  0.59106329  0.08981449     1.00900
C308        C  0.39896395  0.59119911  0.08983112     1.00700
N309        N  0.45115035  0.55004855  0.42248030    -0.01400
N310        N  0.41931256  0.55473082  0.39579495    -0.53900
N311        N  0.04528646  0.58130895  0.45285413     0.00500
N312        N  0.07759957  0.60840406  0.44822090    -0.55200
N313        N  0.04496551  0.54999981  0.42248282    -0.01400
N314        N  0.07681739  0.55461821  0.39581320    -0.54200
N315        N  0.45081435  0.58134821  0.45286047     0.00800
N316        N  0.41850343  0.60849465  0.44822441    -0.55300
Mn317      Mn  0.99804865  0.58425375  0.50115591     1.18400
C318        C  0.39894834  0.59119851  0.41249289     1.03000
C319        C  0.09717328  0.59105908  0.41250450     1.03700
N320        N  0.45118716  0.95000055  0.07976252    -0.01500
N321        N  0.41933531  0.94538278  0.10643233    -0.57800
N322        N  0.04533404  0.91865163  0.04938472    -0.00300
N323        N  0.07764482  0.89150512  0.05402155    -0.58400
N324        N  0.04499761  0.94995145  0.07976483    -0.01000
N325        N  0.07683484  0.94526912  0.10645083    -0.58000
N326        N  0.45086553  0.91869150  0.04939118     0.00100
N327        N  0.41855192  0.89159701  0.05402460    -0.58700
Mn328      Mn  0.99808448  0.50000034  0.08239080     1.10700
C329        C  0.39897876  0.90894228  0.08974120     1.04300
C330        C  0.09719931  0.90880131  0.08975343     1.04300
N331        N  0.04498316  0.94995207  0.42243786    -0.01000
N332        N  0.07681962  0.94526837  0.39574525    -0.56400
N333        N  0.45085013  0.91868690  0.45278626    -0.00300
N334        N  0.41853810  0.89159030  0.44813278    -0.53100
N335        N  0.45116997  0.94999795  0.42244046    -0.01600
N336        N  0.41931883  0.94537896  0.39576815    -0.55900
N337        N  0.04532098  0.91865453  0.45279629    -0.00600
N338        N  0.07763190  0.89150829  0.44813775    -0.53100
Mn339      Mn  0.49806151  0.00000002  0.41985355     1.20200
Mn340      Mn  0.49810258  0.91574641  0.00108842     1.10100
Cl341      Cl  0.99808708  0.50000017  0.00112220    -0.81100
C342        C  0.09718487  0.90880182  0.41241553     1.01300
C343        C  0.39896392  0.90893627  0.41243152     1.01100
C344        C  0.37467437  0.87930994  0.38392894     0.02400
C345        C  0.37469157  0.87931496  0.11822352     0.02400
C346        C  0.28720916  0.83835303  0.02477704     0.07200
C347        C  0.28718621  0.83835078  0.47734200     0.07100
C348        C  0.24807755  0.83638527  0.45546279    -0.13400
C349        C  0.20895903  0.83822669  0.47734108     0.07200
C350        C  0.20898180  0.83822410  0.02477607     0.07100
C351        C  0.24809869  0.83638344  0.04665372    -0.13800
H352        H  0.24809688  0.83672528  0.08241861     0.09200
H353        H  0.24807888  0.83672861  0.41969795     0.09200
C354        C  0.37468451  0.62088952  0.38401581     0.02400
C355        C  0.33720032  0.97553121  0.29176137     0.07200
C356        C  0.33718469  0.52475276  0.29178132     0.07100
C357        C  0.33543631  0.54745000  0.25114724    -0.13400
C358        C  0.33719531  0.52475564  0.21049473     0.07200
C359        C  0.33721110  0.97553378  0.21047092     0.07100
C360        C  0.33547768  0.95283824  0.25110665    -0.13400
H361        H  0.33581473  0.91573289  0.25109148     0.09200
H362        H  0.33574326  0.58455542  0.25116262     0.09200
C363        C  0.37470335  0.62089329  0.11833235     0.02400
C364        C  0.28718860  0.66177386  0.02490732     0.07200
C365        C  0.28716787  0.66177728  0.47747230     0.07100
C366        C  0.24805108  0.66361892  0.45559472    -0.13400
C367        C  0.20894064  0.66164900  0.47747129     0.07200
C368        C  0.20896137  0.66164915  0.02490637     0.07100
C369        C  0.24807002  0.66361447  0.04678575    -0.13400
H370        H  0.24806866  0.66327045  0.08255025     0.09200
H371        H  0.24805292  0.66327774  0.41982984     0.09200
C372        C  0.12144588  0.87910749  0.38391486     0.02400
C373        C  0.47499503  0.79241484  0.35197351     0.07200
C374        C  0.02111593  0.79238694  0.35197992     0.07100
C375        C  0.04183788  0.74996073  0.35036711    -0.13400
C376        C  0.02113642  0.70756117  0.35203742     0.07200
C377        C  0.47501412  0.70758926  0.35203426     0.07100
C378        C  0.45429312  0.75001196  0.35035632    -0.13400
H379        H  0.41983174  0.75003178  0.35015918     0.09200
H380        H  0.07629954  0.74994114  0.35017712     0.09200
C381        C  0.12146073  0.62068654  0.38402263     0.02400
C382        C  0.15895392  0.97524459  0.29175261     0.07200
C383        C  0.15894005  0.52446657  0.29177631     0.07100
C384        C  0.16067151  0.54716208  0.25114039    -0.13400
C385        C  0.15894681  0.52446898  0.21048584     0.07200
C386        C  0.15896243  0.97524742  0.21046600     0.07100
C387        C  0.16071192  0.95255029  0.25110006    -0.13400
H388        H  0.16040501  0.91544453  0.25108472     0.09200
H389        H  0.16033452  0.58426709  0.25115541     0.09200
C390        C  0.12147145  0.62068960  0.11831762     0.02400
C391        C  0.12146291  0.87911050  0.11823100     0.02400
C392        C  0.47501540  0.79243939  0.15020727     0.07200
C393        C  0.02113255  0.79241072  0.15021030     0.07100
C394        C  0.04185297  0.74998777  0.15188853    -0.13400
C395        C  0.02115070  0.70758515  0.15027109     0.07200
C396        C  0.47503458  0.70761363  0.15026484     0.07100
C397        C  0.45431331  0.75004019  0.15187795    -0.13400
H398        H  0.41985165  0.75006034  0.15206848     0.09200
H399        H  0.07631459  0.74996756  0.15208628     0.09200
C400        C  0.05218944  0.83026573  0.14570973    -0.08400
C401        C  0.08603492  0.85040415  0.13830424    -0.09900
C402        C  0.08606215  0.64947095  0.13842353    -0.08400
C403        C  0.05221956  0.66967917  0.14582174    -0.09900
C404        C  0.15309243  0.94401159  0.17295764    -0.08400
C405        C  0.14354595  0.91119620  0.14969424    -0.09900
C406        C  0.14354447  0.58854592  0.14975103    -0.08400
C407        C  0.15308035  0.55571267  0.17299490    -0.09900
C408        C  0.15307005  0.55570902  0.32929272    -0.08400
C409        C  0.14353487  0.58854221  0.35256336    -0.09900
C410        C  0.05220677  0.66966497  0.35653257    -0.08400
C411        C  0.08604902  0.64946455  0.36393793    -0.09900
C412        C  0.14352828  0.91118990  0.35247138    -0.08400
C413        C  0.15307705  0.94400573  0.32923394    -0.09900
C414        C  0.05217007  0.83025317  0.35643393    -0.08400
C415        C  0.08601635  0.85039899  0.36382860    -0.09900
C416        C  0.15079369  0.64489909  0.08683569    -0.08400
C417        C  0.17289807  0.65520240  0.05500973    -0.09900
C418        C  0.17288087  0.65520031  0.44736010    -0.08400
C419        C  0.15078097  0.64489705  0.41552373    -0.09900
C420        C  0.44397976  0.66974779  0.14581169    -0.08400
C421        C  0.41013325  0.64960200  0.13841782    -0.09900
C422        C  0.32327123  0.65542930  0.05501427    -0.08400
C423        C  0.34538391  0.64515057  0.08685054    -0.09900
C424        C  0.35262165  0.58881059  0.14977621    -0.08400
C425        C  0.34307288  0.55599465  0.17301358    -0.09900
C426        C  0.44395773  0.66973397  0.35653580    -0.08400
C427        C  0.41011240  0.64959552  0.36394191    -0.09900
C428        C  0.34536671  0.64514927  0.41551794    -0.08400
C429        C  0.32325273  0.65543062  0.44736164    -0.09900
C430        C  0.34305401  0.55598859  0.32928975    -0.08400
C431        C  0.35260067  0.58880395  0.35255307    -0.09900
C432        C  0.17289653  0.84457009  0.05488638    -0.08400
C433        C  0.15078158  0.85485108  0.08672948    -0.09900
C434        C  0.17287657  0.84457137  0.44723400    -0.08400
C435        C  0.15076450  0.85485004  0.41539729    -0.09900
C436        C  0.35261815  0.91145911  0.14968340    -0.08400
C437        C  0.34308262  0.94429176  0.17295450    -0.09900
C438        C  0.44394552  0.83033597  0.14571234    -0.08400
C439        C  0.41010335  0.85053668  0.13830754    -0.09900
C440        C  0.32326937  0.84480166  0.05488770    -0.08400
C441        C  0.34537042  0.85510468  0.08672325    -0.09900
C442        C  0.34535291  0.85510046  0.41541170    -0.08400
C443        C  0.32324929  0.84479730  0.44723830    -0.09900
C444        C  0.35260072  0.91145370  0.35249602    -0.08400
C445        C  0.34306514  0.94428728  0.32925241    -0.09900
C446        C  0.41008337  0.85052863  0.36382233    -0.08400
C447        C  0.44392590  0.83032053  0.35642345    -0.09900
N448        N  0.04495721  0.55000168  0.57980754    -0.01200
N449        N  0.07680563  0.55462133  0.60648331    -0.53300
N450        N  0.45081040  0.58134801  0.54944784    -0.00900
N451        N  0.41849967  0.60849488  0.55410556    -0.55500
N452        N  0.45114557  0.55004866  0.57980455    -0.00500
N453        N  0.41930763  0.55473183  0.60649522    -0.53300
N454        N  0.04528093  0.58131094  0.54945999    -0.00200
N455        N  0.07759284  0.60840699  0.55411588    -0.55800
C456        C  0.09716315  0.59106236  0.58982007     1.00900
C457        C  0.39894428  0.59120005  0.58982579     1.00700
N458        N  0.45116972  0.55004811  0.92247763    -0.01400
N459        N  0.41933423  0.55473121  0.89578942    -0.53900
N460        N  0.04530231  0.58131099  0.95285527     0.00500
N461        N  0.07761578  0.60840624  0.94822399    -0.55200
N462        N  0.04498436  0.55000030  0.92248552    -0.01400
N463        N  0.07683853  0.55461779  0.89581879    -0.54200
N464        N  0.45083067  0.58134613  0.95285941     0.00800
N465        N  0.41852000  0.60849234  0.94822147    -0.55300
Mn466      Mn  0.99806354  0.58425381  0.00115595     1.18400
C467        C  0.39896802  0.59119752  0.91248754     1.03000
C468        C  0.09719252  0.59105994  0.91250998     1.03700
N469        N  0.45116442  0.94999980  0.57975968    -0.01500
N470        N  0.41931079  0.94538224  0.60642711    -0.57800
N471        N  0.04531554  0.91865418  0.54938582    -0.00300
N472        N  0.07762652  0.89150845  0.55402412    -0.58400
N473        N  0.04497583  0.94995224  0.57976756    -0.01000
N474        N  0.07681121  0.94526964  0.60645605    -0.58000
N475        N  0.45084606  0.91868892  0.54939007     0.00100
N476        N  0.41853288  0.89159347  0.55402221    -0.58700
Mn477      Mn  0.99806514  0.50000031  0.58239075     1.10700
C478        C  0.39895671  0.90893984  0.58973655     1.04300
C479        C  0.09717799  0.90880354  0.58975828     1.04300
N480        N  0.04500489  0.94995128  0.92244051    -0.01000
N481        N  0.07684328  0.94526793  0.89575047    -0.56400
N482        N  0.45086959  0.91868948  0.95278524    -0.00300
N483        N  0.41855715  0.89159396  0.94813047    -0.53100
N484        N  0.45119288  0.94999866  0.92243763    -0.01600
N485        N  0.41934352  0.94537950  0.89576293    -0.55900
N486        N  0.04533944  0.91865195  0.95279726    -0.00600
N487        N  0.07765012  0.89150493  0.94814021    -0.53100
Mn488      Mn  0.49808509  0.99999991  0.91985349     1.20200
Mn489      Mn  0.49808406  0.91574644  0.50108842     1.10100
Cl490      Cl  0.99807089  0.50000008  0.50112215    -0.81100
C491        C  0.09720620  0.90879964  0.91242033     1.01300
C492        C  0.39898605  0.90893876  0.91242684     1.01100
C493        C  0.37469690  0.87931182  0.88392469     0.02400
C494        C  0.37466918  0.87931307  0.61821930     0.02400
C495        C  0.28718462  0.83834988  0.52477692     0.07200
C496        C  0.28721072  0.83835390  0.97734169     0.07100
C497        C  0.24810198  0.83638589  0.95546272    -0.13400
C498        C  0.20898358  0.83822470  0.97734126     0.07200
C499        C  0.20895728  0.83822599  0.52477632     0.07100
C500        C  0.24807423  0.83638268  0.54665379    -0.13800
H501        H  0.24807285  0.83672445  0.58241863     0.09200
H502        H  0.24810283  0.83672925  0.91969785     0.09200
C503        C  0.37470454  0.62088903  0.88401087     0.02400
C504        C  0.33721177  0.97553115  0.79175679     0.07200
C505        C  0.33719508  0.52475288  0.79177675     0.07100
C506        C  0.33543638  0.54744996  0.75114309    -0.13400
C507        C  0.33718494  0.52475562  0.71049014     0.07200
C508        C  0.33719960  0.97553373  0.71046636     0.07100
C509        C  0.33547768  0.95283810  0.75110264    -0.13400
H510        H  0.33581480  0.91573303  0.75108749     0.09200
H511        H  0.33574335  0.58455572  0.75115837     0.09200
C512        C  0.37468336  0.62089375  0.61832738     0.02400
C513        C  0.28716618  0.66177610  0.52490712     0.07200
C514        C  0.28719029  0.66177512  0.97747203     0.07100
C515        C  0.24807336  0.66361851  0.95559466    -0.13400
C516        C  0.20896304  0.66165068  0.97747149     0.07200
C517        C  0.20893896  0.66164731  0.52490670     0.07100
C518        C  0.24804775  0.66361486  0.54678572    -0.13400
H519        H  0.24804689  0.66327104  0.58255061     0.09200
H520        H  0.24807469  0.66327721  0.91982986     0.09200
C521        C  0.12146776  0.87910593  0.88391933     0.02400
C522        C  0.47501763  0.79241521  0.85197252     0.07200
C523        C  0.02113810  0.79238657  0.85198101     0.07100
C524        C  0.04185967  0.74996012  0.85036936    -0.13400
C525        C  0.02115748  0.70756092  0.85203854     0.07200
C526        C  0.47503542  0.70758960  0.85203316     0.07100
C527        C  0.45431513  0.75001267  0.85035418    -0.13400
H528        H  0.41985383  0.75003303  0.85015540     0.09200
H529        H  0.07632107  0.74994005  0.85018115     0.09200
C530        C  0.12148035  0.62068689  0.88402774     0.02400
C531        C  0.15896501  0.97524463  0.79175709     0.07200
C532        C  0.15895011  0.52446643  0.79178106     0.07100
C533        C  0.16067136  0.54716198  0.75114476    -0.13400
C534        C  0.15893669  0.52446906  0.71049060     0.07200
C535        C  0.15895144  0.97524748  0.71047053     0.07100
C536        C  0.16071196  0.95255024  0.75110403    -0.13400
H537        H  0.16040507  0.91544477  0.75108866     0.09200
H538        H  0.16033423  0.58426734  0.75115997     0.09200
C539        C  0.12145176  0.62068922  0.61832281     0.02400
C540        C  0.12144112  0.87911220  0.61823555     0.02400
C541        C  0.47499293  0.79243908  0.65020616     0.07200
C542        C  0.02111048  0.79241103  0.65021145     0.07100
C543        C  0.04183143  0.74998835  0.65189095    -0.13400
C544        C  0.02112969  0.70758543  0.65027228     0.07200
C545        C  0.47501320  0.70761340  0.65026370     0.07100
C546        C  0.45429129  0.75003964  0.65187563    -0.13400
H547        H  0.41982960  0.75005933  0.65206441     0.09200
H548        H  0.07629278  0.74996859  0.65209046     0.09200
C549        C  0.05216712  0.83026641  0.64571165    -0.08400
C550        C  0.08601264  0.85040528  0.63830731    -0.09900
C551        C  0.08604193  0.64947127  0.63842711    -0.08400
C552        C  0.05219912  0.66967972  0.64582395    -0.09900
C553        C  0.15307282  0.94401186  0.67296335    -0.08400
C554        C  0.14352371  0.91119737  0.64969985    -0.09900
C555        C  0.14352430  0.58854578  0.64975720    -0.08400
C556        C  0.15306240  0.55571297  0.67300090    -0.09900
C557        C  0.15308808  0.55570862  0.82929872    -0.08400
C558        C  0.14355503  0.58854228  0.85256946    -0.09900
C559        C  0.05222717  0.66966448  0.85653498    -0.08400
C560        C  0.08606913  0.64946418  0.86394159    -0.09900
C561        C  0.14355053  0.91118902  0.85247693    -0.08400
C562        C  0.15309685  0.94400571  0.82923965    -0.09900
C563        C  0.05219255  0.83025240  0.85643587    -0.08400
C564        C  0.08603875  0.85039789  0.86383165    -0.09900
C565        C  0.15077412  0.64489764  0.58683966    -0.08400
C566        C  0.17287661  0.65519992  0.55501166    -0.09900
C567        C  0.17290227  0.65520280  0.94736186    -0.08400
C568        C  0.15080042  0.64489863  0.91552752    -0.09900
C569        C  0.44395906  0.66974729  0.64580937    -0.08400
C570        C  0.41011281  0.64960167  0.63841430    -0.09900
C571        C  0.32324972  0.65543218  0.55501253    -0.08400
C572        C  0.34536420  0.64515240  0.58684683    -0.09900
C573        C  0.35260108  0.58881081  0.64977026    -0.08400
C574        C  0.34305443  0.55599439  0.67300772    -0.09900
C575        C  0.44397834  0.66973461  0.85653353    -0.08400
C576        C  0.41013286  0.64959584  0.86393850    -0.09900
C577        C  0.34538651  0.64514753  0.91551426    -0.08400
C578        C  0.32327428  0.65542787  0.94735988    -0.09900
C579        C  0.34307241  0.55598887  0.82928394    -0.08400
C580        C  0.35262126  0.58880377  0.85254711    -0.09900
C581        C  0.17287301  0.84457332  0.55488804    -0.08400
C582        C  0.15075994  0.85485372  0.58673298    -0.09900
C583        C  0.17290023  0.84456819  0.94723555    -0.08400
C584        C  0.15078635  0.85484754  0.91540066    -0.09900
C585        C  0.35259522  0.91145786  0.64967801    -0.08400
C586        C  0.34306221  0.94429151  0.67294880    -0.09900
C587        C  0.44392278  0.83033527  0.64571056    -0.08400
C588        C  0.41008059  0.85053549  0.63830477    -0.09900
C589        C  0.32324570  0.84479759  0.55488625    -0.08400
C590        C  0.34534831  0.85510160  0.58672007    -0.09900
C591        C  0.34537513  0.85510348  0.91540845    -0.08400
C592        C  0.32327294  0.84480126  0.94723666    -0.09900
C593        C  0.35262380  0.91145497  0.85249061    -0.08400
C594        C  0.34308566  0.94428748  0.82924666    -0.09900
C595        C  0.41010630  0.85052983  0.86381958    -0.08400
C596        C  0.44394886  0.83032136  0.85642169    -0.09900
N597        N  0.54497086  0.05000215  0.07980410    -0.01200
N598        N  0.57682266  0.05462025  0.10647571    -0.53300
N599        N  0.95082023  0.08134578  0.04944768    -0.00900
N600        N  0.91851017  0.10849303  0.05410689    -0.55500
N601        N  0.95115789  0.05004824  0.07980613    -0.00500
N602        N  0.91932217  0.05473299  0.10649946    -0.53300
N603        N  0.54529093  0.08131312  0.04945819    -0.00200
N604        N  0.57760371  0.10840880  0.05411105    -0.55800
C605        C  0.59717822  0.09106231  0.08981192     1.00900
C606        C  0.89895754  0.09120016  0.08982958     1.00700
N607        N  0.95114344  0.05004878  0.42247950    -0.01400
N608        N  0.91930695  0.05473223  0.39579268    -0.53900
N609        N  0.54527563  0.08130870  0.45285306     0.00500
N610        N  0.57759011  0.10840214  0.44822021    -0.55200
N611        N  0.54495364  0.04999973  0.42248162    -0.01400
N612        N  0.57680612  0.05461647  0.39581245    -0.54200
N613        N  0.95080719  0.08134849  0.45285958     0.00800
N614        N  0.91849730  0.10849614  0.44822211    -0.55300
Mn615      Mn  0.49803847  0.08425385  0.50115586     1.18400
C616        C  0.89894322  0.09120067  0.41248973     1.03000
C617        C  0.59716347  0.09105629  0.41250394     1.03700
N618        N  0.95119250  0.45000051  0.07976166    -0.01500
N619        N  0.91933972  0.44538338  0.10643040    -0.57800
N620        N  0.54534057  0.41865191  0.04938357    -0.00300
N621        N  0.57765087  0.39150477  0.05402004    -0.58400
N622        N  0.54500469  0.44995154  0.07976382    -0.01000
N623        N  0.57684185  0.44526838  0.10644974    -0.58000
N624        N  0.95087123  0.41869150  0.04939026     0.00100
N625        N  0.91855705  0.39159760  0.05402268    -0.58700
Mn626      Mn  0.49807919  0.00000029  0.08239085     1.10700
C627        C  0.89898300  0.40894330  0.08973857     1.04300
C628        C  0.59720562  0.40880028  0.08975201     1.04300
N629        N  0.54499020  0.44995190  0.42243731    -0.01000
N630        N  0.57682530  0.44526703  0.39574321    -0.56400
N631        N  0.95086098  0.41868725  0.45278519    -0.00300
N632        N  0.91854764  0.39159232  0.44813210    -0.53100
N633        N  0.95118195  0.44999808  0.42243920    -0.01600
N634        N  0.91933029  0.44538060  0.39576722    -0.55900
N635        N  0.54532824  0.41865412  0.45279554    -0.00600
N636        N  0.57763797  0.39150658  0.44813542    -0.53100
Mn637      Mn  0.99807369  0.49999990  0.41985356     1.20200
Mn638      Mn  0.99810898  0.41574648  0.00108832     1.10100
Cl639      Cl  0.49808069  0.00000008  0.00112221    -0.81100
C640        C  0.59719003  0.40879963  0.41241244     1.01300
C641        C  0.89897386  0.40893905  0.41243086     1.01100
C642        C  0.87468367  0.37931334  0.38392813     0.02400
C643        C  0.87469442  0.37931643  0.11822011     0.02400
C644        C  0.78721344  0.33835372  0.02477284     0.07200
C645        C  0.78719266  0.33835362  0.47733793     0.07100
C646        C  0.74808408  0.33638763  0.45545855    -0.13400
C647        C  0.70896537  0.33822732  0.47733684     0.07200
C648        C  0.70898614  0.33822371  0.02477197     0.07100
C649        C  0.74810307  0.33638329  0.04664950    -0.13800
H650        H  0.74810136  0.33672470  0.08241441     0.09200
H651        H  0.74808556  0.33673153  0.41969366     0.09200
C652        C  0.87468046  0.12089203  0.38401194     0.02400
C653        C  0.83720879  0.47553137  0.29175826     0.07200
C654        C  0.83718095  0.02475287  0.29177819     0.07100
C655        C  0.83543136  0.04744991  0.25114403    -0.13400
C656        C  0.83718969  0.02475565  0.21049142     0.07200
C657        C  0.83721533  0.47553385  0.21046803     0.07100
C658        C  0.83548437  0.45283819  0.25110382    -0.13400
H659        H  0.83582169  0.41573286  0.25108877     0.09200
H660        H  0.83573802  0.08455537  0.25115933     0.09200
C661        C  0.87469741  0.12089507  0.11833047     0.02400
C662        C  0.78718433  0.16177427  0.02490322     0.07200
C663        C  0.78716156  0.16177656  0.47746802     0.07100
C664        C  0.74804457  0.16361647  0.45559047    -0.13400
C665        C  0.70893419  0.16164622  0.47746724     0.07200
C666        C  0.70895718  0.16164853  0.02490224     0.07100
C667        C  0.74806573  0.16361491  0.04678156    -0.13400
H668        H  0.74806432  0.16327163  0.08254610     0.09200
H669        H  0.74804622  0.16327462  0.41982561     0.09200
C670        C  0.62145000  0.37910510  0.38391105     0.02400
C671        C  0.97500078  0.29241615  0.35197320     0.07200
C672        C  0.52111603  0.29238568  0.35197963     0.07100
C673        C  0.54183506  0.24995803  0.35036642    -0.13400
C674        C  0.52113071  0.20755994  0.35203688     0.07200
C675        C  0.97501402  0.20759057  0.35203390     0.07100
C676        C  0.95429605  0.25001475  0.35035565    -0.13400
H677        H  0.91983437  0.25003697  0.35015790     0.09200
H678        H  0.57629672  0.24993605  0.35017601     0.09200
C679        C  0.62145149  0.12068308  0.38402179     0.02400
C680        C  0.65895770  0.47524458  0.29174959     0.07200
C681        C  0.65893181  0.02446633  0.29177322     0.07100
C682        C  0.66066477  0.04716200  0.25113756    -0.13400
C683        C  0.65894244  0.02446887  0.21048298     0.07200
C684        C  0.65896811  0.47524745  0.21046283     0.07100
C685        C  0.66071681  0.45255044  0.25109699    -0.13400
H686        H  0.66041011  0.41544463  0.25108160     0.09200
H687        H  0.66032743  0.08426734  0.25115269     0.09200
C688        C  0.62146873  0.12068812  0.11831419     0.02400
C689        C  0.62146880  0.37910882  0.11822918     0.02400
C690        C  0.97501503  0.29244004  0.15020697     0.07200
C691        C  0.52113644  0.29241004  0.15020982     0.07100
C692        C  0.54185522  0.24998626  0.15188783    -0.13400
C693        C  0.52115111  0.20758449  0.15027078     0.07200
C694        C  0.97503064  0.20761434  0.15026423     0.07100
C695        C  0.95431112  0.25004172  0.15187724    -0.13400
H696        H  0.91984946  0.25006327  0.15206725     0.09200
H697        H  0.57631660  0.24996469  0.15208490     0.09200
C698        C  0.55219458  0.33026420  0.14570820    -0.08400
C699        C  0.58604021  0.35040256  0.13830228    -0.09900
C700        C  0.58606072  0.14946952  0.13842160    -0.08400
C701        C  0.55221854  0.16967774  0.14582078    -0.09900
C702        C  0.65309877  0.44401090  0.17295472    -0.08400
C703        C  0.64355234  0.41119463  0.14969223    -0.09900
C704        C  0.64354238  0.08854457  0.14974690    -0.08400
C705        C  0.65307787  0.05571192  0.17299150    -0.09900
C706        C  0.65306060  0.05570752  0.32929003    -0.08400
C707        C  0.64352493  0.08853920  0.35256205    -0.09900
C708        C  0.55219882  0.16966223  0.35653176    -0.08400
C709        C  0.58604061  0.14946138  0.36393699    -0.09900
C710        C  0.64353145  0.41118807  0.35246691    -0.08400
C711        C  0.65308016  0.44400486  0.32923041    -0.09900
C712        C  0.55217258  0.33025036  0.35643298    -0.08400
C713        C  0.58601941  0.35039609  0.36382646    -0.09900
C714        C  0.65079013  0.14489764  0.08683163    -0.08400
C715        C  0.67289405  0.15520125  0.05500552    -0.09900
C716        C  0.67287389  0.15519689  0.44735699    -0.08400
C717        C  0.65077259  0.14489344  0.41552186    -0.09900
C718        C  0.94397454  0.16974937  0.14581012    -0.08400
C719        C  0.91012788  0.14960366  0.13841585    -0.09900
C720        C  0.82326675  0.15543060  0.05501073    -0.08400
C721        C  0.84537862  0.14515245  0.08684787    -0.09900
C722        C  0.85261514  0.08881225  0.14977410    -0.08400
C723        C  0.84306659  0.05599534  0.17301050    -0.09900
C724        C  0.94395524  0.16973680  0.35653458    -0.08400
C725        C  0.91010936  0.14959850  0.36393959    -0.09900
C726        C  0.84536153  0.14515121  0.41551366    -0.08400
C727        C  0.82324679  0.15543152  0.44735725    -0.09900
C728        C  0.84305101  0.05598959  0.32928612    -0.08400
C729        C  0.85259755  0.08880594  0.35254852    -0.09900
C730        C  0.67290115  0.34456904  0.05488292    -0.08400
C731        C  0.65078699  0.35484954  0.08672685    -0.09900
C732        C  0.67288263  0.34457058  0.44722958    -0.08400
C733        C  0.65076982  0.35484830  0.41539300    -0.09900
C734        C  0.85262038  0.41146035  0.14967937    -0.08400
C735        C  0.84308501  0.44429239  0.17295111    -0.09900
C736        C  0.94394666  0.33033741  0.14571153    -0.08400
C737        C  0.91010495  0.35053813  0.13830557    -0.09900
C738        C  0.82327346  0.34480287  0.05488349    -0.08400
C739        C  0.84537404  0.35510615  0.08671924    -0.09900
C740        C  0.84536127  0.35510415  0.41540986    -0.08400
C741        C  0.82325622  0.34480070  0.44723516    -0.09900
C742        C  0.85261081  0.41145660  0.35249473    -0.08400
C743        C  0.84307495  0.44428869  0.32924970    -0.09900
C744        C  0.91009179  0.35053170  0.36382146    -0.08400
C745        C  0.94393395  0.33032337  0.35642272    -0.09900
N746        N  0.54494792  0.05000148  0.57980691    -0.01200
N747        N  0.57679800  0.05461968  0.60648092    -0.53300
N748        N  0.95080178  0.08134829  0.54944668    -0.00900
N749        N  0.91849212  0.10849651  0.55410455    -0.55500
N750        N  0.95113605  0.05004888  0.57980339    -0.00500
N751        N  0.91929855  0.05473346  0.60649429    -0.53300
N752        N  0.54527141  0.08131061  0.54945927    -0.00200
N753        N  0.57758473  0.10840510  0.55411331    -0.55800
C754        C  0.59715614  0.09105974  0.58981654     1.00900
C755        C  0.89893638  0.09120246  0.58982488     1.00700
N756        N  0.95116520  0.05004799  0.92247685    -0.01400
N757        N  0.91933066  0.05473174  0.89578751    -0.53900
N758        N  0.54529502  0.08131116  0.95285400     0.00500
N759        N  0.57760895  0.10840576  0.94822242    -0.55200
N760        N  0.54497650  0.05000034  0.92248432    -0.01400
N761        N  0.57683075  0.05461704  0.89581752    -0.54200
N762        N  0.95082563  0.08134597  0.95285863     0.00800
N763        N  0.91851544  0.10849270  0.94821971    -0.55300
Mn764      Mn  0.49805702  0.08425375  0.00115592     1.18400
C765        C  0.89896447  0.09119839  0.91248498     1.03000
C766        C  0.59718546  0.09105882  0.91250850     1.03700
N767        N  0.95117364  0.45000002  0.57975898    -0.01500
N768        N  0.91931856  0.44538382  0.60642479    -0.57800
N769        N  0.54532420  0.41865405  0.54938460    -0.00300
N770        N  0.57763416  0.39150699  0.55402307    -0.58400
N771        N  0.54498537  0.44995218  0.57976630    -0.01000
N772        N  0.57682026  0.44526819  0.60645509    -0.58000
N773        N  0.95085544  0.41868935  0.54938920     0.00100
N774        N  0.91854092  0.39159533  0.55401970    -0.58700
Mn775      Mn  0.49805573  0.00000019  0.58239075     1.10700
C776        C  0.89896376  0.40894240  0.58973312     1.04300
C777        C  0.59718588  0.40880130  0.58975734     1.04300
N778        N  0.54500950  0.44995155  0.92243981    -0.01000
N779        N  0.57684684  0.44526746  0.89574858    -0.56400
N780        N  0.95087682  0.41868939  0.95278398    -0.00300
N781        N  0.91856382  0.39159456  0.94812896    -0.53100
N782        N  0.95120078  0.44999862  0.92243645    -0.01600
N783        N  0.91935139  0.44538027  0.89576160    -0.55900
N784        N  0.54534456  0.41865227  0.95279659    -0.00600
N785        N  0.57765460  0.39150458  0.94813842    -0.53100
Mn786      Mn  0.99809307  0.49999991  0.91985352     1.20200
Mn787      Mn  0.99809420  0.41574643  0.50108841     1.10100
Cl788      Cl  0.49806011  0.00000011  0.50112214    -0.81100
C789        C  0.59720969  0.40879879  0.91241777     1.01300
C790        C  0.89899308  0.40894002  0.91242537     1.01100
C791        C  0.87470332  0.37931384  0.88392294     0.02400
C792        C  0.87467475  0.37931605  0.61821497     0.02400
C793        C  0.78719101  0.33835194  0.52477264     0.07200
C794        C  0.78721510  0.33835524  0.97733760     0.07100
C795        C  0.74810638  0.33638718  0.95545843    -0.13400
C796        C  0.70898783  0.33822491  0.97733704     0.07200
C797        C  0.70896371  0.33822598  0.52477228     0.07100
C798        C  0.74808079  0.33638353  0.54664956    -0.13800
H799        H  0.74807962  0.33672488  0.58241445     0.09200
H800        H  0.74810734  0.33673113  0.91969386     0.09200
C801        C  0.87470226  0.12089040  0.88400753     0.02400
C802        C  0.83721875  0.47553128  0.79175352     0.07200
C803        C  0.83719209  0.02475282  0.79177379     0.07100
C804        C  0.83543146  0.04744980  0.75114016    -0.13400
C805        C  0.83717868  0.02475564  0.71048700     0.07200
C806        C  0.83720529  0.47553386  0.71046334     0.07100
C807        C  0.83548438  0.45283808  0.75109952    -0.13400
H808        H  0.83582174  0.41573299  0.75108436     0.09200
H809        H  0.83573816  0.08455553  0.75115551     0.09200
C810        C  0.87467562  0.12089667  0.61832603     0.02400
C811        C  0.78715982  0.16177605  0.52490298     0.07200
C812        C  0.78718605  0.16177482  0.97746781     0.07100
C813        C  0.74806898  0.16361737  0.95559047    -0.13400
C814        C  0.70895872  0.16164942  0.97746748     0.07200
C815        C  0.70893265  0.16164540  0.52490245     0.07100
C816        C  0.74804131  0.16361416  0.54678147    -0.13400
H817        H  0.74804035  0.16327083  0.58254634     0.09200
H818        H  0.74807016  0.16327559  0.91982567     0.09200
C819        C  0.62146999  0.37910464  0.88391609     0.02400
C820        C  0.97502178  0.29241579  0.85197189     0.07200
C821        C  0.52113731  0.29238597  0.85198074     0.07100
C822        C  0.54185712  0.24995868  0.85036861    -0.13400
C823        C  0.52115321  0.20756029  0.85203797     0.07200
C824        C  0.97503619  0.20759018  0.85203283     0.07100
C825        C  0.95431764  0.25001406  0.85035322    -0.13400
H826        H  0.91985631  0.25003578  0.85015369     0.09200
H827        H  0.57631844  0.24993724  0.85017979     0.09200
C828        C  0.62147395  0.12068501  0.88402604     0.02400
C829        C  0.65896793  0.47524466  0.79175425     0.07200
C830        C  0.65894323  0.02446629  0.79177780     0.07100
C831        C  0.66066481  0.04716199  0.75114162    -0.13400
C832        C  0.65893111  0.02446892  0.71048754     0.07200
C833        C  0.65895785  0.47524729  0.71046751     0.07100
C834        C  0.66071678  0.45255039  0.75110128    -0.13400
H835        H  0.66041003  0.41544462  0.75108607     0.09200
H836        H  0.66032741  0.08426736  0.75115679     0.09200
C837        C  0.62144620  0.12068621  0.61831842     0.02400
C838        C  0.62144878  0.37910936  0.61823416     0.02400
C839        C  0.97499407  0.29244023  0.65020566     0.07200
C840        C  0.52111516  0.29240978  0.65021076     0.07100
C841        C  0.54183323  0.24998566  0.65188994    -0.13400
C842        C  0.52112860  0.20758418  0.65027172     0.07200
C843        C  0.97500858  0.20761457  0.65026311     0.07100
C844        C  0.95428950  0.25004223  0.65187481    -0.13400
H845        H  0.91982791  0.25006425  0.65206301     0.09200
H846        H  0.57629462  0.24996354  0.65208879     0.09200
C847        C  0.55217397  0.33026363  0.64571032    -0.08400
C848        C  0.58601983  0.35040222  0.63830572    -0.09900
C849        C  0.58603780  0.14946834  0.63842430    -0.08400
C850        C  0.55219563  0.16967697  0.64582256    -0.09900
C851        C  0.65308045  0.44401055  0.67296069    -0.08400
C852        C  0.64353172  0.41119486  0.64969827    -0.09900
C853        C  0.64351931  0.08854343  0.64975242    -0.08400
C854        C  0.65305748  0.05571183  0.67299729    -0.09900
C855        C  0.65308091  0.05570774  0.82929577    -0.08400
C856        C  0.64354792  0.08854049  0.85256748    -0.09900
C857        C  0.55222166  0.16966302  0.85653361    -0.08400
C858        C  0.58606346  0.14946263  0.86393981    -0.09900
C859        C  0.64355201  0.41118786  0.85247297    -0.08400
C860        C  0.65309834  0.44400518  0.82923634    -0.09900
C861        C  0.55219322  0.33025099  0.85643517    -0.08400
C862        C  0.58603985  0.35039644  0.86382994    -0.09900
C863        C  0.65076790  0.14489451  0.58683482    -0.08400
C864        C  0.67287036  0.15519719  0.55500706    -0.09900
C865        C  0.67289761  0.15520082  0.94735856    -0.08400
C866        C  0.65079476  0.14489640  0.91552515    -0.09900
C867        C  0.94395223  0.16975000  0.64580812    -0.08400
C868        C  0.91010558  0.14960473  0.63841285    -0.09900
C869        C  0.82324316  0.15543349  0.55500907    -0.08400
C870        C  0.84535683  0.14515478  0.58684443    -0.09900
C871        C  0.85259297  0.08881330  0.64976864    -0.08400
C872        C  0.84304687  0.05599553  0.67300490    -0.09900
C873        C  0.94397762  0.16973605  0.85653275    -0.08400
C874        C  0.91013169  0.14959736  0.86393667    -0.09900
C875        C  0.84538323  0.14514870  0.91551027    -0.08400
C876        C  0.82327027  0.15542845  0.94735561    -0.09900
C877        C  0.84307084  0.05598945  0.82928049    -0.08400
C878        C  0.85261979  0.08880499  0.85254299    -0.09900
C879        C  0.67287961  0.34457185  0.55488474    -0.08400
C880        C  0.65076724  0.35485131  0.58673062    -0.09900
C881        C  0.67290418  0.34456757  0.94723134    -0.08400
C882        C  0.65078958  0.35484651  0.91539678    -0.09900
C883        C  0.85260020  0.41146021  0.64967323    -0.08400
C884        C  0.84306707  0.44429264  0.67294520    -0.09900
C885        C  0.94392628  0.33033789  0.64570912    -0.08400
C886        C  0.91008477  0.35053839  0.63830194    -0.09900
C887        C  0.82325204  0.34480025  0.55488167    -0.08400
C888        C  0.84535449  0.35510462  0.58671537    -0.09900
C889        C  0.84538083  0.35510571  0.91540591    -0.08400
C890        C  0.82327766  0.34480319  0.94723320    -0.09900
C891        C  0.85263085  0.41145688  0.85248865    -0.08400
C892        C  0.84309273  0.44428846  0.82924373    -0.09900
C893        C  0.91011200  0.35053151  0.86381776    -0.08400
C894        C  0.94395429  0.33032274  0.85642031    -0.09900
N895        N  0.54497686  0.55000219  0.07980337    -0.01200
N896        N  0.57682831  0.55462101  0.10647531    -0.53300
N897        N  0.95082675  0.58134593  0.04944755    -0.00900
N898        N  0.91851614  0.60849259  0.05410606    -0.55500
N899        N  0.95116420  0.55004830  0.07980589    -0.00500
N900        N  0.91932777  0.55473235  0.10649846    -0.53300
N901        N  0.54529665  0.58131310  0.04945747    -0.00200
N902        N  0.57760896  0.60840938  0.05411042    -0.55800
C903        C  0.59718333  0.59106344  0.08981158     1.00900
C904        C  0.89896291  0.59119915  0.08982816     1.00700
N905        N  0.95115397  0.55004851  0.42247894    -0.01400
N906        N  0.91931660  0.55473030  0.39579299    -0.53900
N907        N  0.54528372  0.58130905  0.45285253     0.00500
N908        N  0.57759729  0.60840356  0.44821871    -0.55200
N909        N  0.54496184  0.54999994  0.42248123    -0.01400
N910        N  0.57681345  0.55461768  0.39581109    -0.54200
N911        N  0.95081701  0.58134816  0.45285916     0.00800
N912        N  0.91850574  0.60849405  0.44822247    -0.55300
Mn913      Mn  0.49804704  0.58425380  0.50115586     1.18400
C914        C  0.89895154  0.59119767  0.41249052     1.03000
C915        C  0.59717018  0.59105821  0.41250198     1.03700
N916        N  0.95118617  0.95000049  0.07976190    -0.01500
N917        N  0.91933406  0.94538273  0.10643137    -0.57800
N918        N  0.54533483  0.91865179  0.04938429    -0.00300
N919        N  0.57764563  0.89150524  0.05402067    -0.58400
N920        N  0.54499864  0.94995148  0.07976447    -0.01000
N921        N  0.57683617  0.94526909  0.10645012    -0.58000
N922        N  0.95086473  0.91869151  0.04939049     0.00100
N923        N  0.91855107  0.89159707  0.05402353    -0.58700
Mn924      Mn  0.49808535  0.50000033  0.08239080     1.10700
C925        C  0.89897761  0.90894229  0.08973995     1.04300
C926        C  0.59720047  0.90880136  0.08975234     1.04300
N927        N  0.54498195  0.94995206  0.42243739    -0.01000
N928        N  0.57681804  0.94526831  0.39574432    -0.56400
N929        N  0.95085107  0.91868690  0.45278569    -0.00300
N930        N  0.91853913  0.89159023  0.44813178    -0.53100
N931        N  0.95117131  0.94999789  0.42243983    -0.01600
N932        N  0.91932052  0.94537880  0.39576707    -0.55900
N933        N  0.54532013  0.91865450  0.45279580    -0.00600
N934        N  0.57763093  0.89150815  0.44813672    -0.53100
Mn935      Mn  0.99806281  0.99999999  0.41985336     1.20200
Mn936      Mn  0.99810210  0.91574635  0.00108828     1.10100
Cl937      Cl  0.49808578  0.50000018  0.00112220    -0.81100
C938        C  0.59718346  0.90880168  0.41241424     1.01300
C939        C  0.89896541  0.90893612  0.41243019     1.01100
C940        C  0.87467618  0.87930980  0.38392725     0.02400
C941        C  0.87469016  0.87931489  0.11822193     0.02400
C942        C  0.78720918  0.83835236  0.02477434     0.07200
C943        C  0.78718616  0.83835176  0.47733909     0.07100
C944        C  0.74807744  0.83638657  0.45545984    -0.13400
C945        C  0.70895893  0.83822748  0.47733831     0.07200
C946        C  0.70898189  0.83822343  0.02477337     0.07100
C947        C  0.74809874  0.83638247  0.04665099    -0.13800
H948        H  0.74809695  0.83672408  0.08241587     0.09200
H949        H  0.74807870  0.83673023  0.41969524     0.09200
C950        C  0.87468791  0.62088836  0.38401287     0.02400
C951        C  0.83720186  0.97553119  0.29175942     0.07200
C952        C  0.83718789  0.52475267  0.29177706     0.07100
C953        C  0.83543767  0.54744998  0.25114312    -0.13400
C954        C  0.83719473  0.52475563  0.21049049     0.07200
C955        C  0.83721028  0.97553373  0.21046898     0.07100
C956        C  0.83547807  0.95283820  0.25110478    -0.13400
H957        H  0.83581510  0.91573280  0.25108963     0.09200
H958        H  0.83574461  0.58455542  0.25115859     0.09200
C959        C  0.87470165  0.62089346  0.11832860     0.02400
C960        C  0.78718856  0.66177298  0.02490179     0.07200
C961        C  0.78716797  0.66177486  0.47746681     0.07100
C962        C  0.74805111  0.66361554  0.45558909    -0.13400
C963        C  0.70894057  0.66164663  0.47746578     0.07200
C964        C  0.70896144  0.66164826  0.02490087     0.07100
C965        C  0.74807004  0.66361430  0.04678015    -0.13400
H966        H  0.74806868  0.66327137  0.08254465     0.09200
H967        H  0.74805295  0.66327333  0.41982419     0.09200
C968        C  0.62144418  0.87910741  0.38391321     0.02400
C969        C  0.97499750  0.79241466  0.35197321     0.07200
C970        C  0.52111347  0.79238682  0.35197955     0.07100
C971        C  0.54183504  0.74996044  0.35036618    -0.13400
C972        C  0.52113324  0.70756106  0.35203678     0.07200
C973        C  0.97501731  0.70758908  0.35203389     0.07100
C974        C  0.95429605  0.75001161  0.35035565    -0.13400
H975        H  0.91983443  0.75003114  0.35015790     0.09200
H976        H  0.57629670  0.74994055  0.35017558     0.09200
C977        C  0.62145737  0.62068546  0.38401955     0.02400
C978        C  0.65895246  0.97524463  0.29175077     0.07200
C979        C  0.65893693  0.52446651  0.29177201     0.07100
C980        C  0.66067003  0.54716212  0.25113627    -0.13400
C981        C  0.65894720  0.52446906  0.21048163     0.07200
C982        C  0.65896340  0.97524743  0.21046417     0.07100
C983        C  0.66071163  0.95255030  0.25109828    -0.13400
H984        H  0.66040472  0.91544453  0.25108294     0.09200
H985        H  0.66033297  0.58426720  0.25115137     0.09200
C986        C  0.62147309  0.62068985  0.11831391     0.02400
C987        C  0.62146443  0.87911051  0.11822947     0.02400
C988        C  0.97501343  0.79243938  0.15020691     0.07200
C989        C  0.52113453  0.79241085  0.15021016     0.07100
C990        C  0.54185523  0.74998796  0.15188786    -0.13400
C991        C  0.52115302  0.70758526  0.15027054     0.07200
C992        C  0.97503225  0.70761365  0.15026423     0.07100
C993        C  0.95431112  0.75004027  0.15187724    -0.13400
H994        H  0.91984946  0.75006056  0.15206722     0.09200
H995        H  0.57631661  0.74996788  0.15208496     0.09200
C996        C  0.55219122  0.83026594  0.14570915    -0.08400
C997        C  0.58603662  0.85040433  0.13830324    -0.09900
C998        C  0.58606431  0.64947129  0.13842072    -0.08400
C999        C  0.55222189  0.66967939  0.14582004    -0.09900
C1000       C  0.65309436  0.94401162  0.17295566    -0.08400
C1001       C  0.64354796  0.91119617  0.14969232    -0.09900
C1002       C  0.64354677  0.58854624  0.14974680    -0.08400
C1003       C  0.65308229  0.55571280  0.17299055    -0.09900
C1004       C  0.65306575  0.55570858  0.32928839    -0.08400
C1005       C  0.64353047  0.58854127  0.35255949    -0.09900
C1006       C  0.55220334  0.66966463  0.35653125    -0.08400
C1007       C  0.58604558  0.64946393  0.36393581    -0.09900
C1008       C  0.64352607  0.91118996  0.35246942    -0.08400
C1009       C  0.65307486  0.94400582  0.32923201    -0.09900
C1010       C  0.55216800  0.83025283  0.35643332    -0.08400
C1011       C  0.58601440  0.85039867  0.36382755    -0.09900
C1012       C  0.65079456  0.64489911  0.08683104    -0.08400
C1013       C  0.67289834  0.65520200  0.05500452    -0.09900
C1014       C  0.67288021  0.65519835  0.44735515    -0.08400
C1015       C  0.65077886  0.64489552  0.41551972    -0.09900
C1016       C  0.94397742  0.66974798  0.14580981    -0.08400
C1017       C  0.91013110  0.64960220  0.13841493    -0.09900
C1018       C  0.82327097  0.65542891  0.05500906    -0.08400
C1019       C  0.84538302  0.64515059  0.08684590    -0.09900
C1020       C  0.85261921  0.58881086  0.14977195    -0.08400
C1021       C  0.84307073  0.55599470  0.17300914    -0.09900
C1022       C  0.94396113  0.66973356  0.35653454    -0.08400
C1023       C  0.91011582  0.64959487  0.36393988    -0.09900
C1024       C  0.84536879  0.64514760  0.41551401    -0.08400
C1025       C  0.82325337  0.65542859  0.44735672    -0.09900
C1026       C  0.84305848  0.55598804  0.32928553    -0.08400
C1027       C  0.85260520  0.58880288  0.35254939    -0.09900
C1028       C  0.67289686  0.84456978  0.05488392    -0.08400
C1029       C  0.65078255  0.85485099  0.08672743    -0.09900
C1030       C  0.67287622  0.84457172  0.44723143    -0.08400
C1031       C  0.65076347  0.85485018  0.41539516    -0.09900
C1032       C  0.85261627  0.91145901  0.14968141    -0.08400
C1033       C  0.84308084  0.94429172  0.17295246    -0.09900
C1034       C  0.94394381  0.83033606  0.14571168    -0.08400
C1035       C  0.91010175  0.85053677  0.13830646    -0.09900
C1036       C  0.82326916  0.84480127  0.05488522    -0.08400
C1037       C  0.84536957  0.85510443  0.08672122    -0.09900
C1038       C  0.84535394  0.85510055  0.41540946    -0.08400
C1039       C  0.82324948  0.84479773  0.44723554    -0.09900
C1040       C  0.85260312  0.91145372  0.35249399    -0.08400
C1041       C  0.84306748  0.94428729  0.32925038    -0.09900
C1042       C  0.91008541  0.85052830  0.36382117    -0.08400
C1043       C  0.94392805  0.83032018  0.35642276    -0.09900
N1044       N  0.54495751  0.55000173  0.57980605    -0.01200
N1045       N  0.57680668  0.55462145  0.60648089    -0.53300
N1046       N  0.95081088  0.58134801  0.54944641    -0.00900
N1047       N  0.91850001  0.60849483  0.55410306    -0.55500
N1048       N  0.95114532  0.55004875  0.57980321    -0.00500
N1049       N  0.91930671  0.55473203  0.60649297    -0.53300
N1050       N  0.54528036  0.58131102  0.54945856    -0.00200
N1051       N  0.57759234  0.60840718  0.55411347    -0.55800
C1052       C  0.59716366  0.59106251  0.58981700     1.00900
C1053       C  0.89894373  0.59120013  0.58982281     1.00700
N1054       N  0.95117297  0.55004804  0.92247624    -0.01400
N1055       N  0.91933787  0.55473071  0.89578737    -0.53900
N1056       N  0.54530005  0.58131102  0.95285373     0.00500
N1057       N  0.57761386  0.60840577  0.94822177    -0.55200
N1058       N  0.54498118  0.55000039  0.92248394    -0.01400
N1059       N  0.57683497  0.55461735  0.89581659    -0.54200
N1060       N  0.95083293  0.58134604  0.95285803     0.00800
N1061       N  0.91852195  0.60849176  0.94821945    -0.55300
Mn1062     Mn  0.49806235  0.58425383  0.00115588     1.18400
C1063       C  0.89897085  0.59119671  0.91248505     1.03000
C1064       C  0.59718974  0.59105922  0.91250736     1.03700
N1065       N  0.95116428  0.94999972  0.57975923    -0.01500
N1066       N  0.91931033  0.94538225  0.60642618    -0.57800
N1067       N  0.54531538  0.91865438  0.54938525    -0.00300
N1068       N  0.57762654  0.89150879  0.55402299    -0.58400
N1069       N  0.54497590  0.94995229  0.57976712    -0.01000
N1070       N  0.57681160  0.94526976  0.60645517    -0.58000
N1071       N  0.95084620  0.91868891  0.54938952     0.00100
N1072       N  0.91853279  0.89159365  0.55402112    -0.58700
Mn1073     Mn  0.49806548  0.50000031  0.58239071     1.10700
C1074       C  0.89895624  0.90894003  0.58973520     1.04300
C1075       C  0.59717834  0.90880384  0.58975694     1.04300
N1076       N  0.54500483  0.94995141  0.92244022    -0.01000
N1077       N  0.57684268  0.94526774  0.89574957    -0.56400
N1078       N  0.95086953  0.91868942  0.95278473    -0.00300
N1079       N  0.91855734  0.89159361  0.94812935    -0.53100
N1080       N  0.95119307  0.94999864  0.92243720    -0.01600
N1081       N  0.91934422  0.94537926  0.89576190    -0.55900
N1082       N  0.54533960  0.91865200  0.95279692    -0.00600
N1083       N  0.57764991  0.89150461  0.94813917    -0.53100
Mn1084     Mn  0.99808522  0.99999988  0.91985343     1.20200
Mn1085     Mn  0.99808454  0.91574641  0.50108841     1.10100
Cl1086     Cl  0.49806923  0.50000010  0.50112213    -0.81100
C1087       C  0.59720556  0.90879922  0.91241899     1.01300
C1088       C  0.89898672  0.90893835  0.91242542     1.01100
C1089       C  0.87469801  0.87931136  0.88392286     0.02400
C1090       C  0.87466826  0.87931326  0.61821746     0.02400
C1091       C  0.78718457  0.83835060  0.52477402     0.07200
C1092       C  0.78721079  0.83835353  0.97733900     0.07100
C1093       C  0.74810203  0.83638561  0.95545990    -0.13400
C1094       C  0.70898359  0.83822428  0.97733854     0.07200
C1095       C  0.70895729  0.83822665  0.52477357     0.07100
C1096       C  0.74807424  0.83638332  0.54665092    -0.13800
H1097       H  0.74807293  0.83672494  0.58241579     0.09200
H1098       H  0.74810290  0.83672913  0.91969537     0.09200
C1099       C  0.87470762  0.62088795  0.88400772     0.02400
C1100       C  0.83721299  0.97553111  0.79175497     0.07200
C1101       C  0.83719800  0.52475273  0.79177231     0.07100
C1102       C  0.83543773  0.54744988  0.75113879    -0.13400
C1103       C  0.83718469  0.52475551  0.71048578     0.07200
C1104       C  0.83719928  0.97553373  0.71046453     0.07100
C1105       C  0.83547813  0.95283816  0.75110084    -0.13400
H1106       H  0.83581515  0.91573282  0.75108567     0.09200
H1107       H  0.83574472  0.58455568  0.75115414     0.09200
C1108       C  0.87468200  0.62089389  0.61832356     0.02400
C1109       C  0.78716618  0.66177476  0.52490160     0.07200
C1110       C  0.78719037  0.66177309  0.97746650     0.07100
C1111       C  0.74807337  0.66361573  0.95558904    -0.13400
C1112       C  0.70896301  0.66164859  0.97746601     0.07200
C1113       C  0.70893904  0.66164615  0.52490117     0.07100
C1114       C  0.74804779  0.66361398  0.54678018    -0.13400
H1115       H  0.74804697  0.66327093  0.58254476     0.09200
H1116       H  0.74807469  0.66327359  0.91982419     0.09200
C1117       C  0.62146665  0.87910551  0.88391756     0.02400
C1118       C  0.97501965  0.79241487  0.85197215     0.07200
C1119       C  0.52113605  0.79238647  0.85198070     0.07100
C1120       C  0.54185715  0.74995980  0.85036861    -0.13400
C1121       C  0.52115452  0.70756082  0.85203800     0.07200
C1122       C  0.97503837  0.70758926  0.85203257     0.07100
C1123       C  0.95431768  0.75001208  0.85035322    -0.13400
H1124       H  0.91985632  0.75003206  0.85015370     0.09200
H1125       H  0.57631847  0.74993937  0.85017978     0.09200
C1126       C  0.62147730  0.62068594  0.88402457     0.02400
C1127       C  0.65896382  0.97524458  0.79175530     0.07200
C1128       C  0.65894732  0.52446645  0.79177665     0.07100
C1129       C  0.66067015  0.54716201  0.75114043    -0.13400
C1130       C  0.65893706  0.52446903  0.71048623     0.07200
C1131       C  0.65895201  0.97524747  0.71046870     0.07100
C1132       C  0.66071151  0.95255022  0.75110225    -0.13400
H1133       H  0.66040446  0.91544478  0.75108685     0.09200
H1134       H  0.66033305  0.58426736  0.75115561     0.09200
C1135       C  0.62145311  0.62068935  0.61831893     0.02400
C1136       C  0.62144191  0.87911248  0.61823370     0.02400
C1137       C  0.97499135  0.79243909  0.65020586     0.07200
C1138       C  0.52111204  0.79241114  0.65021104     0.07100
C1139       C  0.54183319  0.74998853  0.65188999    -0.13400
C1140       C  0.52113164  0.70758551  0.65027166     0.07200
C1141       C  0.97501125  0.70761343  0.65026313     0.07100
C1142       C  0.95428949  0.75003972  0.65187487    -0.13400
H1143       H  0.91982784  0.75005955  0.65206302     0.09200
H1144       H  0.57629459  0.74996892  0.65208873     0.09200
C1145       C  0.55216839  0.83026663  0.64571076    -0.08400
C1146       C  0.58601379  0.85040546  0.63830590    -0.09900
C1147       C  0.58604381  0.64947156  0.63842417    -0.08400
C1148       C  0.55220115  0.66967991  0.64582222    -0.09900
C1149       C  0.65307389  0.94401191  0.67296138    -0.08400
C1150       C  0.64352480  0.91119752  0.64969778    -0.09900
C1151       C  0.64352625  0.58854591  0.64975278    -0.08400
C1152       C  0.65306408  0.55571293  0.67299633    -0.09900
C1153       C  0.65308405  0.55570830  0.82929428    -0.08400
C1154       C  0.64355089  0.58854147  0.85256550    -0.09900
C1155       C  0.55222400  0.66966413  0.85653361    -0.08400
C1156       C  0.58606604  0.64946373  0.86393936    -0.09900
C1157       C  0.64354896  0.91118867  0.85247487    -0.08400
C1158       C  0.65309514  0.94400551  0.82923770    -0.09900
C1159       C  0.55219093  0.83025205  0.85643514    -0.08400
C1160       C  0.58603727  0.85039752  0.86383039    -0.09900
C1161       C  0.65077484  0.64489734  0.58683483    -0.08400
C1162       C  0.67287686  0.65519925  0.55500639    -0.09900
C1163       C  0.67290176  0.65520090  0.94735694    -0.08400
C1164       C  0.65079862  0.64489715  0.91552347    -0.09900
C1165       C  0.94395700  0.66974745  0.64580771    -0.08400
C1166       C  0.91011090  0.64960193  0.63841152    -0.09900
C1167       C  0.82324955  0.65543146  0.55500729    -0.08400
C1168       C  0.84536354  0.64515219  0.58684209    -0.09900
C1169       C  0.85259901  0.58881096  0.64976582    -0.08400
C1170       C  0.84305279  0.55599434  0.67300319    -0.09900
C1171       C  0.94398157  0.66973402  0.85653214    -0.08400
C1172       C  0.91013601  0.64959515  0.86393622    -0.09900
C1173       C  0.84538837  0.64514610  0.91551011    -0.08400
C1174       C  0.82327483  0.65542615  0.94735483    -0.09900
C1175       C  0.84307653  0.55598830  0.82927954    -0.08400
C1176       C  0.85262543  0.58880272  0.85254321    -0.09900
C1177       C  0.67287318  0.84457396  0.55488551    -0.08400
C1178       C  0.65076037  0.85485424  0.58673067    -0.09900
C1179       C  0.67290006  0.84456765  0.94723294    -0.08400
C1180       C  0.65078574  0.85484707  0.91539839    -0.09900
C1181       C  0.85259394  0.91145797  0.64967589    -0.08400
C1182       C  0.84306108  0.94429154  0.67294681    -0.09900
C1183       C  0.94392137  0.83033535  0.64570985    -0.08400
C1184       C  0.91007934  0.85053565  0.63830347    -0.09900
C1185       C  0.82324552  0.84479818  0.55488353    -0.08400
C1186       C  0.84534777  0.85510194  0.58671772    -0.09900
C1187       C  0.84537567  0.85510315  0.91540614    -0.08400
C1188       C  0.82327314  0.84480092  0.94723410    -0.09900
C1189       C  0.85262542  0.91145458  0.85248844    -0.08400
C1190       C  0.84308732  0.94428726  0.82924465    -0.09900
C1191       C  0.91010771  0.85052921  0.86381838    -0.08400
C1192       C  0.94395041  0.83032072  0.85642102    -0.09900
loop_ 
_geom_bond_atom_site_label_1 
_geom_bond_atom_site_label_2 
_geom_bond_distance 
_geom_bond_site_symmetry_2 
_ccdc_geom_bond_type 
N1            N2   1.300       .  A
N1            N7   1.302       .  A
N1          Mn30   2.087   1_455  S
N2            C9   1.347       .  A
N3            N5   1.302       .  A
N3            N4   1.302       .  A
N3         Mn764   2.096       .  S
N4           C10   1.349       .  A
N5            N6   1.300       .  A
N5         Mn626   2.087       .  S
N6           C10   1.347       .  A
N7            N8   1.302       .  A
N7         Mn168   2.096   1_455  S
N8            C9   1.349       .  A
C9           C92   1.448       .  S
C10          C65   1.448       .  S
N11          N17   1.302       .  A
N11          N12   1.300       .  A
N11        Mn339   2.087       .  S
N12          C20   1.347       .  A
N13          N14   1.302       .  A
N13          N15   1.302       .  A
N13         Mn19   2.096   1_455  S
N14          C21   1.349       .  A
N15          N16   1.300       .  A
N15        Mn935   2.087   1_445  S
N16          C21   1.347       .  A
N17          N18   1.302       .  A
N17        Mn615   2.096       .  S
N18          C20   1.349       .  A
Mn19        N748   2.096       .  S
Mn19        N156   2.096   1_655  S
Mn19        N613   2.096       .  S
Mn19       Cl192   2.470       .  S
C20          C56   1.448       .  S
C21          C83   1.448       .  S
N22          N23   1.300       .  A
N22          N28   1.302       .  A
N22        Mn924   2.087       .  S
N23          C31   1.347       .  A
N24          N26   1.302       .  A
N24          N25   1.302       .  A
N24        Mn638   2.096   1_455  S
N25          C32   1.349       .  A
N26          N27   1.300       .  A
N26        Mn328   2.087   1_455  S
N27          C32   1.347       .  A
N28          N29   1.302       .  A
N28         Mn42   2.096       .  S
N29          C31   1.349       .  A
Mn30        N601   2.087       .  S
Mn30        N916   2.087   1_545  S
Mn30        N324   2.087   1_645  S
Mn30        Cl43   2.472       .  S
C31          C47   1.448       .  S
C32          C93   1.448       .  S
N33          N34   1.300       .  A
N33          N39   1.302       .  A
N33        Mn637   2.087   1_455  S
N34          C44   1.347       .  A
N35          N36   1.302       .  A
N35          N37   1.302       .  A
N35        Mn191   2.096       .  S
N36          C45   1.349       .  A
N37          N38   1.300       .  A
N37         Mn41   2.087       .  S
N38          C45   1.347       .  A
N39          N40   1.302       .  A
N39        Mn787   2.096   1_455  S
N40          C44   1.349       .  A
Mn41        N309   2.087       .  S
Mn41        N909   2.087       .  S
Mn41        N629   2.087       .  S
Mn41      Cl1086   2.472       .  S
Mn42        N620   2.096       .  S
Mn42        N184   2.096   1_554  S
Mn42        N784   2.096   1_554  S
Mn42       Cl937   2.470       .  S
Cl43       Mn168   2.470       .  S
Cl43      Mn1084   2.472   1_544  S
Cl43       Mn936   2.470   1_545  S
C44          C74   1.448       .  S
C45          C46   1.448       .  S
C46         C144   1.510       .  S
C46         C146   1.513       .  S
C46         C148   1.528       .  S
C47         C138   1.513       .  S
C47         C141   1.529       .  S
C47         C143   1.510       .  S
C48          C53   1.405       .  A
C48         C198   1.443   1_554  A
C48         C142   1.474       .  S
C49          C50   1.405       .  A
C49         C197   1.443       .  A
C49         C145   1.474       .  S
C50          C51   1.405       .  A
C50          H55   1.088       .  S
C51         C201   1.443       .  A
C51         C136   1.474       .  S
C52          C53   1.405       .  A
C52         C200   1.443   1_554  A
C52         C134   1.474       .  S
C53          H54   1.088       .  S
C56         C129   1.528       .  S
C56         C130   1.510       .  S
C56         C133   1.513       .  S
C57          C62   1.405       .  A
C57         C356   1.443       .  A
C57         C147   1.474       .  S
C58          C59   1.405       .  A
C58         C355   1.443   1_545  A
C58         C132   1.474       .  S
C59          C60   1.405       .  A
C59          H64   1.088       .  S
C60         C359   1.443   1_545  A
C60         C127   1.474       .  S
C61          C62   1.405       .  A
C61         C358   1.443       .  A
C61         C139   1.474       .  S
C62          H63   1.088       .  S
C65         C123   1.528       .  S
C65         C125   1.510       .  S
C65         C126   1.513       .  S
C66          C71   1.405       .  A
C66         C216   1.443   1_554  A
C66         C124   1.474       .  S
C67          C68   1.405       .  A
C67         C215   1.443       .  A
C67         C131   1.474       .  S
C68          C69   1.405       .  A
C68          H73   1.088       .  S
C69         C219   1.443       .  A
C69         C120   1.474       .  S
C70          C71   1.405       .  A
C70         C218   1.443   1_554  A
C70         C119   1.474       .  S
C71          H72   1.088       .  S
C74         C114   1.513       .  S
C74         C117   1.528       .  S
C74         C137   1.510       .  S
C75          C80   1.406       .  A
C75         C672   1.458       .  A
C75         C149   1.488       .  S
C76          C77   1.406       .  A
C76         C671   1.458   1_455  A
C76         C116   1.488       .  S
C77          C78   1.406       .  A
C77          H82   1.089       .  S
C78         C675   1.458   1_455  A
C78         C112   1.488       .  S
C79          C80   1.406       .  A
C79         C674   1.458       .  A
C79         C128   1.488       .  S
C80          H81   1.089       .  S
C83         C111   1.513       .  S
C83         C113   1.529       .  S
C83         C121   1.510       .  S
C84          C89   1.405       .  A
C84         C383   1.443       .  A
C84         C115   1.474       .  S
C85          C86   1.405       .  A
C85         C382   1.443   1_545  A
C85         C110   1.474       .  S
C86          C87   1.405       .  A
C86          H91   1.088       .  S
C87         C386   1.443   1_545  A
C87         C109   1.474       .  S
C88          C89   1.405       .  A
C88         C385   1.443       .  A
C88         C106   1.474       .  S
C89          H90   1.088       .  S
C92         C104   1.528       .  S
C92         C108   1.513       .  S
C92         C118   1.510       .  S
C93         C103   1.528       .  S
C93         C107   1.513       .  S
C93         C135   1.510       .  S
C94          C99   1.406       .  A
C94         C691   1.458       .  A
C94         C140   1.488       .  S
C95          C96   1.406       .  A
C95         C690   1.458   1_455  A
C95         C102   1.488       .  S
C96          C97   1.406       .  A
C96         H101   1.089       .  S
C97         C694   1.458   1_455  A
C97         C105   1.488       .  S
C98          C99   1.406       .  A
C98         C693   1.458       .  A
C98         C122   1.488       .  S
C99         H100   1.089       .  S
C102        C103   1.243       .  T
C104        C105   1.243       .  T
C106        C107   1.232       .  T
C108        C109   1.232       .  T
C110        C111   1.232       .  T
C112        C113   1.243       .  T
C114        C115   1.232       .  T
C116        C117   1.243       .  T
C118        C119   1.231       .  T
C120        C121   1.231       .  T
C122        C123   1.243       .  T
C124        C125   1.231       .  T
C126        C127   1.232       .  T
C128        C129   1.243       .  T
C130        C131   1.231       .  T
C132        C133   1.232       .  T
C134        C135   1.231       .  T
C136        C137   1.231       .  T
C138        C139   1.232       .  T
C140        C141   1.243       .  T
C142        C143   1.231       .  T
C144        C145   1.231       .  T
C146        C147   1.232       .  T
C148        C149   1.243       .  T
N150        N151   1.300       .  A
N150        N156   1.302       .  A
N150       Mn179   2.087   1_455  S
N151        C158   1.347       .  A
N152        N154   1.302       .  A
N152        N153   1.302       .  A
N152       Mn615   2.096       .  S
N153        C159   1.349       .  A
N154        N155   1.300       .  A
N154       Mn775   2.087       .  S
N155        C159   1.347       .  A
N156        N157   1.302       .  A
N157        C158   1.349       .  A
C158        C241   1.448       .  S
C159        C214   1.448       .  S
N160        N166   1.302       .  A
N160        N161   1.300       .  A
N160       Mn488   2.087   1_545  S
N161        C169   1.347       .  A
N162        N163   1.302       .  A
N162        N164   1.302       .  A
N162       Mn168   2.096   1_456  S
N163        C170   1.349       .  A
N164        N165   1.300       .  A
N164      Mn1084   2.087   1_445  S
N165        C170   1.347       .  A
N166        N167   1.302       .  A
N166       Mn764   2.096   1_556  S
N167        C169   1.349       .  A
Mn168       N599   2.096       .  S
Mn168       N762   2.096   1_554  S
C169        C205   1.448       .  S
C170        C232   1.448       .  S
N171        N172   1.300       .  A
N171        N177   1.302       .  A
N171      Mn1073   2.087       .  S
N172        C180   1.347       .  A
N173        N175   1.302       .  A
N173        N174   1.302       .  A
N173       Mn787   2.096   1_455  S
N174        C181   1.349       .  A
N175        N176   1.300       .  A
N175       Mn477   2.087   1_455  S
N176        C181   1.347       .  A
N177        N178   1.302       .  A
N177       Mn191   2.096       .  S
N178        C180   1.349       .  A
Mn179       N750   2.087       .  S
Mn179      N1065   2.087   1_545  S
Mn179       N473   2.087   1_645  S
Mn179      Cl192   2.472       .  S
C180        C196   1.448       .  S
C181        C242   1.448       .  S
N182        N183   1.300       .  A
N182        N188   1.302       .  A
N182       Mn786   2.087   1_455  S
N183        C193   1.347       .  A
N184        N185   1.302       .  A
N184        N186   1.302       .  A
N185        C194   1.349       .  A
N186        N187   1.300       .  A
N186       Mn190   2.087       .  S
N187        C194   1.347       .  A
N188        N189   1.302       .  A
N188       Mn638   2.096   1_456  S
N189        C193   1.349       .  A
Mn190       N458   2.087       .  S
Mn190      N1058   2.087       .  S
Mn190       N778   2.087       .  S
Mn190      Cl937   2.472   1_556  S
Mn191       N769   2.096       .  S
Mn191       N635   2.096       .  S
Mn191     Cl1086   2.470       .  S
Cl192      Mn935   2.472   1_545  S
Cl192     Mn1085   2.470   1_545  S
C193        C223   1.448       .  S
C194        C195   1.448       .  S
C195        C293   1.510       .  S
C195        C295   1.513       .  S
C195        C297   1.528       .  S
C196        C287   1.513       .  S
C196        C290   1.528       .  S
C196        C292   1.510       .  S
C197        C202   1.405       .  A
C197        C291   1.474       .  S
C198        C199   1.405       .  A
C198        C294   1.474       .  S
C199        C200   1.405       .  A
C199        H204   1.088       .  S
C200        C285   1.474       .  S
C201        C202   1.405       .  A
C201        C283   1.474       .  S
C202        H203   1.088       .  S
C205        C278   1.529       .  S
C205        C279   1.510       .  S
C205        C282   1.513       .  S
C206        C505   1.443       .  A
C206        C211   1.405       .  A
C206        C296   1.474       .  S
C207        C504   1.443   1_545  A
C207        C208   1.405       .  A
C207        C281   1.474       .  S
C208        C209   1.405       .  A
C208        H213   1.088       .  S
C209        C508   1.443   1_545  A
C209        C276   1.474       .  S
C210        C507   1.443       .  A
C210        C211   1.405       .  A
C210        C288   1.474       .  S
C211        H212   1.088       .  S
C214        C272   1.528       .  S
C214        C274   1.510       .  S
C214        C275   1.513       .  S
C215        C220   1.405       .  A
C215        C273   1.474       .  S
C216        C217   1.405       .  A
C216        C280   1.474       .  S
C217        C218   1.405       .  A
C217        H222   1.088       .  S
C218        C269   1.474       .  S
C219        C220   1.405       .  A
C219        C268   1.474       .  S
C220        H221   1.088       .  S
C223        C263   1.513       .  S
C223        C266   1.528       .  S
C223        C286   1.510       .  S
C224        C821   1.458       .  A
C224        C229   1.406       .  A
C224        C298   1.488       .  S
C225        C820   1.458   1_455  A
C225        C226   1.406       .  A
C225        C265   1.488       .  S
C226        C227   1.406       .  A
C226        H231   1.089       .  S
C227        C824   1.458   1_455  A
C227        C261   1.488       .  S
C228        C823   1.458       .  A
C228        C229   1.406       .  A
C228        C277   1.488       .  S
C229        H230   1.089       .  S
C232        C260   1.513       .  S
C232        C262   1.528       .  S
C232        C270   1.510       .  S
C233        C532   1.443       .  A
C233        C238   1.405       .  A
C233        C264   1.474       .  S
C234        C531   1.443   1_545  A
C234        C235   1.405       .  A
C234        C259   1.474       .  S
C235        C236   1.405       .  A
C235        H240   1.088       .  S
C236        C535   1.443   1_545  A
C236        C258   1.474       .  S
C237        C534   1.443       .  A
C237        C238   1.405       .  A
C237        C255   1.474       .  S
C238        H239   1.088       .  S
C241        C253   1.528       .  S
C241        C257   1.513       .  S
C241        C267   1.510       .  S
C242        C252   1.529       .  S
C242        C256   1.513       .  S
C242        C284   1.510       .  S
C243        C840   1.458       .  A
C243        C248   1.406       .  A
C243        C289   1.488       .  S
C244        C839   1.458   1_455  A
C244        C245   1.406       .  A
C244        C251   1.488       .  S
C245        C246   1.406       .  A
C245        H250   1.089       .  S
C246        C843   1.458   1_455  A
C246        C254   1.488       .  S
C247        C842   1.458       .  A
C247        C248   1.406       .  A
C247        C271   1.488       .  S
C248        H249   1.089       .  S
C251        C252   1.243       .  T
C253        C254   1.243       .  T
C255        C256   1.232       .  T
C257        C258   1.232       .  T
C259        C260   1.232       .  T
C261        C262   1.243       .  T
C263        C264   1.232       .  T
C265        C266   1.243       .  T
C267        C268   1.231       .  T
C269        C270   1.231       .  T
C271        C272   1.243       .  T
C273        C274   1.231       .  T
C275        C276   1.232       .  T
C277        C278   1.243       .  T
C279        C280   1.231       .  T
C281        C282   1.232       .  T
C283        C284   1.231       .  T
C285        C286   1.231       .  T
C287        C288   1.232       .  T
C289        C290   1.243       .  T
C291        C292   1.231       .  T
C293        C294   1.231       .  T
C295        C296   1.232       .  T
C297        C298   1.243       .  T
N299        N300   1.300       .  A
N299        N305   1.302       .  A
N299       Mn328   2.087   1_455  S
N300        C307   1.347       .  A
N301        N303   1.302       .  A
N301        N302   1.302       .  A
N301      Mn1062   2.096       .  S
N302        C308   1.349       .  A
N303        N304   1.300       .  A
N303       Mn924   2.087       .  S
N304        C308   1.347       .  A
N305        N306   1.302       .  A
N305       Mn466   2.096   1_455  S
N306        C307   1.349       .  A
C307        C390   1.448       .  S
C308        C363   1.448       .  S
N309        N315   1.302       .  A
N309        N310   1.300       .  A
N310        C318   1.347       .  A
N311        N312   1.302       .  A
N311        N313   1.302       .  A
N311       Mn317   2.096   1_455  S
N312        C319   1.349       .  A
N313        N314   1.300       .  A
N313       Mn637   2.087   1_455  S
N314        C319   1.347       .  A
N315        N316   1.302       .  A
N315       Mn913   2.096       .  S
N316        C318   1.349       .  A
Mn317      N1046   2.096       .  S
Mn317       N454   2.096   1_655  S
Mn317       N911   2.096       .  S
Mn317      Cl490   2.470       .  S
C318        C354   1.448       .  S
C319        C381   1.448       .  S
N320        N321   1.300       .  A
N320        N326   1.302       .  A
N320       Mn626   2.087   1_565  S
N321        C329   1.347       .  A
N322        N324   1.302       .  A
N322        N323   1.302       .  A
N322       Mn936   2.096   1_455  S
N323        C330   1.349       .  A
N324        N325   1.300       .  A
N325        C330   1.347       .  A
N326        N327   1.302       .  A
N326       Mn340   2.096       .  S
N327        C329   1.349       .  A
Mn328       N899   2.087       .  S
Mn328       N618   2.087       .  S
Mn328      Cl341   2.472       .  S
C329        C345   1.448       .  S
C330        C391   1.448       .  S
N331        N332   1.300       .  A
N331        N337   1.302       .  A
N331       Mn935   2.087   1_455  S
N332        C342   1.347       .  A
N333        N334   1.302       .  A
N333        N335   1.302       .  A
N333       Mn489   2.096       .  S
N334        C343   1.349       .  A
N335        N336   1.300       .  A
N335       Mn339   2.087   1_565  S
N336        C343   1.347       .  A
N337        N338   1.302       .  A
N337      Mn1085   2.096   1_455  S
N338        C342   1.349       .  A
Mn339       N611   2.087       .  S
Mn339       N927   2.087   1_545  S
Mn339      Cl788   2.472       .  S
Mn340       N918   2.096       .  S
Mn340       N482   2.096   1_554  S
Mn340      N1082   2.096   1_554  S
Mn340      Cl639   2.470   1_565  S
Cl341      Mn466   2.470       .  S
Cl341      Mn786   2.472   1_554  S
Cl341      Mn638   2.470       .  S
C342        C372   1.448       .  S
C343        C344   1.448       .  S
C344        C442   1.510       .  S
C344        C444   1.513       .  S
C344        C446   1.528       .  S
C345        C436   1.513       .  S
C345        C439   1.529       .  S
C345        C441   1.510       .  S
C346        C496   1.443   1_554  A
C346        C351   1.405       .  A
C346        C440   1.474       .  S
C347        C495   1.443       .  A
C347        C348   1.405       .  A
C347        C443   1.474       .  S
C348        C349   1.405       .  A
C348        H353   1.088       .  S
C349        C499   1.443       .  A
C349        C434   1.474       .  S
C350        C498   1.443   1_554  A
C350        C351   1.405       .  A
C350        C432   1.474       .  S
C351        H352   1.088       .  S
C354        C427   1.528       .  S
C354        C428   1.510       .  S
C354        C431   1.513       .  S
C355        C360   1.405       .  A
C355        C445   1.474       .  S
C356        C357   1.405       .  A
C356        C430   1.474       .  S
C357        C358   1.405       .  A
C357        H362   1.088       .  S
C358        C425   1.474       .  S
C359        C360   1.405       .  A
C359        C437   1.474       .  S
C360        H361   1.088       .  S
C363        C421   1.528       .  S
C363        C423   1.510       .  S
C363        C424   1.513       .  S
C364        C514   1.443   1_554  A
C364        C369   1.405       .  A
C364        C422   1.474       .  S
C365        C513   1.443       .  A
C365        C366   1.405       .  A
C365        C429   1.474       .  S
C366        C367   1.405       .  A
C366        H371   1.088       .  S
C367        C517   1.443       .  A
C367        C418   1.474       .  S
C368        C516   1.443   1_554  A
C368        C369   1.405       .  A
C368        C417   1.474       .  S
C369        H370   1.088       .  S
C372        C412   1.513       .  S
C372        C415   1.528       .  S
C372        C435   1.510       .  S
C373        C970   1.458       .  A
C373        C378   1.406       .  A
C373        C447   1.488       .  S
C374        C969   1.458   1_455  A
C374        C375   1.406       .  A
C374        C414   1.488       .  S
C375        C376   1.406       .  A
C375        H380   1.089       .  S
C376        C973   1.458   1_455  A
C376        C410   1.489       .  S
C377        C972   1.458       .  A
C377        C378   1.406       .  A
C377        C426   1.488       .  S
C378        H379   1.089       .  S
C381        C409   1.513       .  S
C381        C411   1.529       .  S
C381        C419   1.510       .  S
C382        C387   1.405       .  A
C382        C413   1.474       .  S
C383        C384   1.405       .  A
C383        C408   1.474       .  S
C384        C385   1.405       .  A
C384        H389   1.088       .  S
C385        C407   1.474       .  S
C386        C387   1.405       .  A
C386        C404   1.474       .  S
C387        H388   1.088       .  S
C390        C402   1.528       .  S
C390        C406   1.513       .  S
C390        C416   1.510       .  S
C391        C401   1.528       .  S
C391        C405   1.513       .  S
C391        C433   1.510       .  S
C392        C989   1.458       .  A
C392        C397   1.406       .  A
C392        C438   1.488       .  S
C393        C988   1.458   1_455  A
C393        C394   1.406       .  A
C393        C400   1.488       .  S
C394        C395   1.406       .  A
C394        H399   1.089       .  S
C395        C992   1.458   1_455  A
C395        C403   1.488       .  S
C396        C991   1.458       .  A
C396        C397   1.406       .  A
C396        C420   1.488       .  S
C397        H398   1.089       .  S
C400        C401   1.243       .  T
C402        C403   1.243       .  T
C404        C405   1.232       .  T
C406        C407   1.232       .  T
C408        C409   1.232       .  T
C410        C411   1.243       .  T
C412        C413   1.232       .  T
C414        C415   1.243       .  T
C416        C417   1.231       .  T
C418        C419   1.231       .  T
C420        C421   1.243       .  T
C422        C423   1.231       .  T
C424        C425   1.232       .  T
C426        C427   1.243       .  T
C428        C429   1.231       .  T
C430        C431   1.232       .  T
C432        C433   1.231       .  T
C434        C435   1.231       .  T
C436        C437   1.232       .  T
C438        C439   1.243       .  T
C440        C441   1.231       .  T
C442        C443   1.231       .  T
C444        C445   1.232       .  T
C446        C447   1.243       .  T
N448        N449   1.300       .  A
N448        N454   1.302       .  A
N448       Mn477   2.087   1_455  S
N449        C456   1.347       .  A
N450        N452   1.302       .  A
N450        N451   1.302       .  A
N450       Mn913   2.096       .  S
N451        C457   1.349       .  A
N452        N453   1.300       .  A
N452      Mn1073   2.087       .  S
N453        C457   1.347       .  A
N454        N455   1.302       .  A
N455        C456   1.349       .  A
C456        C539   1.448       .  S
C457        C512   1.448       .  S
N458        N464   1.302       .  A
N458        N459   1.300       .  A
N459        C467   1.347       .  A
N460        N461   1.302       .  A
N460        N462   1.302       .  A
N460       Mn466   2.096   1_456  S
N461        C468   1.349       .  A
N462        N463   1.300       .  A
N462       Mn786   2.087   1_455  S
N463        C468   1.347       .  A
N464        N465   1.302       .  A
N464      Mn1062   2.096   1_556  S
N465        C467   1.349       .  A
Mn466       N897   2.096       .  S
Mn466      N1060   2.096   1_554  S
C467        C503   1.448       .  S
C468        C530   1.448       .  S
N469        N470   1.300       .  A
N469        N475   1.302       .  A
N469       Mn775   2.087   1_565  S
N470        C478   1.347       .  A
N471        N473   1.302       .  A
N471        N472   1.302       .  A
N471      Mn1085   2.096   1_455  S
N472        C479   1.349       .  A
N473        N474   1.300       .  A
N474        C479   1.347       .  A
N475        N476   1.302       .  A
N475       Mn489   2.096       .  S
N476        C478   1.349       .  A
Mn477      N1048   2.087       .  S
Mn477       N767   2.087       .  S
Mn477      Cl490   2.472       .  S
C478        C494   1.448       .  S
C479        C540   1.448       .  S
N480        N481   1.300       .  A
N480        N486   1.302       .  A
N480      Mn1084   2.087   1_455  S
N481        C491   1.347       .  A
N482        N483   1.302       .  A
N482        N484   1.302       .  A
N483        C492   1.349       .  A
N484        N485   1.300       .  A
N484       Mn488   2.087       .  S
N485        C492   1.347       .  A
N486        N487   1.302       .  A
N486       Mn936   2.096   1_456  S
N487        C491   1.349       .  A
Mn488       N760   2.087   1_565  S
Mn488      N1076   2.087       .  S
Mn488      Cl639   2.472   1_566  S
Mn489      N1067   2.096       .  S
Mn489       N933   2.096       .  S
Mn489      Cl788   2.470   1_565  S
Cl490      Mn637   2.472       .  S
Cl490      Mn787   2.470       .  S
C491        C521   1.448       .  S
C492        C493   1.448       .  S
C493        C591   1.510       .  S
C493        C593   1.513       .  S
C493        C595   1.528       .  S
C494        C585   1.513       .  S
C494        C588   1.529       .  S
C494        C590   1.510       .  S
C495        C500   1.405       .  A
C495        C589   1.474       .  S
C496        C497   1.405       .  A
C496        C592   1.474       .  S
C497        C498   1.405       .  A
C497        H502   1.088       .  S
C498        C583   1.474       .  S
C499        C500   1.405       .  A
C499        C581   1.474       .  S
C500        H501   1.088       .  S
C503        C576   1.528       .  S
C503        C577   1.510       .  S
C503        C580   1.513       .  S
C504        C509   1.405       .  A
C504        C594   1.474       .  S
C505        C506   1.405       .  A
C505        C579   1.474       .  S
C506        C507   1.405       .  A
C506        H511   1.088       .  S
C507        C574   1.474       .  S
C508        C509   1.405       .  A
C508        C586   1.474       .  S
C509        H510   1.088       .  S
C512        C570   1.528       .  S
C512        C572   1.510       .  S
C512        C573   1.513       .  S
C513        C518   1.405       .  A
C513        C571   1.474       .  S
C514        C515   1.405       .  A
C514        C578   1.474       .  S
C515        C516   1.405       .  A
C515        H520   1.088       .  S
C516        C567   1.474       .  S
C517        C518   1.405       .  A
C517        C566   1.474       .  S
C518        H519   1.088       .  S
C521        C561   1.513       .  S
C521        C564   1.528       .  S
C521        C584   1.510       .  S
C522       C1119   1.458       .  A
C522        C527   1.406       .  A
C522        C596   1.488       .  S
C523       C1118   1.458   1_455  A
C523        C524   1.406       .  A
C523        C563   1.488       .  S
C524        C525   1.406       .  A
C524        H529   1.089       .  S
C525       C1122   1.458   1_455  A
C525        C559   1.488       .  S
C526       C1121   1.458       .  A
C526        C527   1.406       .  A
C526        C575   1.488       .  S
C527        H528   1.089       .  S
C530        C558   1.513       .  S
C530        C560   1.529       .  S
C530        C568   1.510       .  S
C531        C536   1.405       .  A
C531        C562   1.474       .  S
C532        C533   1.405       .  A
C532        C557   1.474       .  S
C533        C534   1.405       .  A
C533        H538   1.088       .  S
C534        C556   1.474       .  S
C535        C536   1.405       .  A
C535        C553   1.474       .  S
C536        H537   1.088       .  S
C539        C551   1.528       .  S
C539        C555   1.513       .  S
C539        C565   1.510       .  S
C540        C550   1.528       .  S
C540        C554   1.513       .  S
C540        C582   1.510       .  S
C541       C1138   1.458       .  A
C541        C546   1.406       .  A
C541        C587   1.488       .  S
C542       C1137   1.458   1_455  A
C542        C543   1.406       .  A
C542        C549   1.488       .  S
C543        C544   1.406       .  A
C543        H548   1.089       .  S
C544       C1141   1.458   1_455  A
C544        C552   1.488       .  S
C545       C1140   1.458       .  A
C545        C546   1.406       .  A
C545        C569   1.488       .  S
C546        H547   1.089       .  S
C549        C550   1.243       .  T
C551        C552   1.243       .  T
C553        C554   1.232       .  T
C555        C556   1.232       .  T
C557        C558   1.232       .  T
C559        C560   1.243       .  T
C561        C562   1.232       .  T
C563        C564   1.243       .  T
C565        C566   1.231       .  T
C567        C568   1.231       .  T
C569        C570   1.243       .  T
C571        C572   1.231       .  T
C573        C574   1.232       .  T
C575        C576   1.243       .  T
C577        C578   1.231       .  T
C579        C580   1.232       .  T
C581        C582   1.231       .  T
C583        C584   1.231       .  T
C585        C586   1.232       .  T
C587        C588   1.243       .  T
C589        C590   1.231       .  T
C591        C592   1.231       .  T
C593        C594   1.232       .  T
C595        C596   1.243       .  T
N597        N598   1.300       .  A
N597        N603   1.302       .  A
N597       Mn626   2.087       .  S
N598        C605   1.347       .  A
N599        N601   1.302       .  A
N599        N600   1.302       .  A
N600        C606   1.349       .  A
N601        N602   1.300       .  A
N602        C606   1.347       .  A
N603        N604   1.302       .  A
N603       Mn764   2.096       .  S
N604        C605   1.349       .  A
C605        C688   1.448       .  S
C606        C661   1.448       .  S
N607        N613   1.302       .  A
N607        N608   1.300       .  A
N607       Mn935   2.087   1_545  S
N608        C616   1.347       .  A
N609        N610   1.302       .  A
N609        N611   1.302       .  A
N609       Mn615   2.096       .  S
N610        C617   1.349       .  A
N611        N612   1.300       .  A
N612        C617   1.347       .  A
N613        N614   1.302       .  A
N614        C616   1.349       .  A
Mn615       N752   2.096       .  S
Mn615      Cl788   2.470       .  S
C616        C652   1.448       .  S
C617        C679   1.448       .  S
N618        N619   1.300       .  A
N618        N624   1.302       .  A
N619        C627   1.347       .  A
N620        N622   1.302       .  A
N620        N621   1.302       .  A
N621        C628   1.349       .  A
N622        N623   1.300       .  A
N622       Mn924   2.087       .  S
N623        C628   1.347       .  A
N624        N625   1.302       .  A
N624       Mn638   2.096       .  S
N625        C627   1.349       .  A
Mn626       N920   2.087   1_545  S
Mn626      Cl639   2.472       .  S
C627        C643   1.448       .  S
C628        C689   1.448       .  S
N629        N630   1.300       .  A
N629        N635   1.302       .  A
N630        C640   1.347       .  A
N631        N632   1.302       .  A
N631        N633   1.302       .  A
N631       Mn787   2.096       .  S
N632        C641   1.349       .  A
N633        N634   1.300       .  A
N633       Mn637   2.087       .  S
N634        C641   1.347       .  A
N635        N636   1.302       .  A
N636        C640   1.349       .  A
Mn637       N905   2.087       .  S
Mn638       N780   2.096   1_554  S
Cl639      Mn764   2.470       .  S
C640        C670   1.448       .  S
C641        C642   1.448       .  S
C642        C740   1.510       .  S
C642        C742   1.513       .  S
C642        C744   1.528       .  S
C643        C734   1.513       .  S
C643        C737   1.529       .  S
C643        C739   1.510       .  S
C644        C794   1.443   1_554  A
C644        C649   1.405       .  A
C644        C738   1.474       .  S
C645        C793   1.443       .  A
C645        C646   1.405       .  A
C645        C741   1.474       .  S
C646        C647   1.405       .  A
C646        H651   1.088       .  S
C647        C797   1.443       .  A
C647        C732   1.474       .  S
C648        C796   1.443   1_554  A
C648        C649   1.405       .  A
C648        C730   1.474       .  S
C649        H650   1.088       .  S
C652        C725   1.529       .  S
C652        C726   1.510       .  S
C652        C729   1.513       .  S
C653        C952   1.443       .  A
C653        C658   1.405       .  A
C653        C743   1.474       .  S
C654        C951   1.443   1_545  A
C654        C655   1.405       .  A
C654        C728   1.474       .  S
C655        C656   1.405       .  A
C655        H660   1.088       .  S
C656        C955   1.443   1_545  A
C656        C723   1.474       .  S
C657        C954   1.443       .  A
C657        C658   1.405       .  A
C657        C735   1.474       .  S
C658        H659   1.088       .  S
C661        C719   1.528       .  S
C661        C721   1.510       .  S
C661        C722   1.513       .  S
C662        C812   1.443   1_554  A
C662        C667   1.405       .  A
C662        C720   1.474       .  S
C663        C811   1.443       .  A
C663        C664   1.405       .  A
C663        C727   1.474       .  S
C664        C665   1.405       .  A
C664        H669   1.088       .  S
C665        C815   1.443       .  A
C665        C716   1.474       .  S
C666        C814   1.443   1_554  A
C666        C667   1.405       .  A
C666        C715   1.474       .  S
C667        H668   1.088       .  S
C670        C710   1.513       .  S
C670        C713   1.528       .  S
C670        C733   1.510       .  S
C671        C676   1.406       .  A
C671        C745   1.488       .  S
C672        C673   1.406       .  A
C672        C712   1.488       .  S
C673        C674   1.406       .  A
C673        H678   1.089       .  S
C674        C708   1.488       .  S
C675        C676   1.406       .  A
C675        C724   1.488       .  S
C676        H677   1.089       .  S
C679        C707   1.513       .  S
C679        C709   1.529       .  S
C679        C717   1.510       .  S
C680        C979   1.443       .  A
C680        C685   1.405       .  A
C680        C711   1.474       .  S
C681        C978   1.443   1_545  A
C681        C682   1.405       .  A
C681        C706   1.474       .  S
C682        C683   1.405       .  A
C682        H687   1.088       .  S
C683        C982   1.443   1_545  A
C683        C705   1.474       .  S
C684        C981   1.443       .  A
C684        C685   1.405       .  A
C684        C702   1.474       .  S
C685        H686   1.088       .  S
C688        C700   1.528       .  S
C688        C704   1.513       .  S
C688        C714   1.510       .  S
C689        C699   1.528       .  S
C689        C703   1.513       .  S
C689        C731   1.510       .  S
C690        C695   1.406       .  A
C690        C736   1.488       .  S
C691        C692   1.406       .  A
C691        C698   1.488       .  S
C692        C693   1.406       .  A
C692        H697   1.089       .  S
C693        C701   1.488       .  S
C694        C695   1.406       .  A
C694        C718   1.488       .  S
C695        H696   1.089       .  S
C698        C699   1.243       .  T
C700        C701   1.243       .  T
C702        C703   1.232       .  T
C704        C705   1.232       .  T
C706        C707   1.232       .  T
C708        C709   1.243       .  T
C710        C711   1.232       .  T
C712        C713   1.243       .  T
C714        C715   1.231       .  T
C716        C717   1.231       .  T
C718        C719   1.243       .  T
C720        C721   1.231       .  T
C722        C723   1.232       .  T
C724        C725   1.243       .  T
C726        C727   1.231       .  T
C728        C729   1.232       .  T
C730        C731   1.231       .  T
C732        C733   1.231       .  T
C734        C735   1.232       .  T
C736        C737   1.243       .  T
C738        C739   1.231       .  T
C740        C741   1.231       .  T
C742        C743   1.232       .  T
C744        C745   1.243       .  T
N746        N747   1.300       .  A
N746        N752   1.302       .  A
N746       Mn775   2.087       .  S
N747        C754   1.347       .  A
N748        N750   1.302       .  A
N748        N749   1.302       .  A
N749        C755   1.349       .  A
N750        N751   1.300       .  A
N751        C755   1.347       .  A
N752        N753   1.302       .  A
N753        C754   1.349       .  A
C754        C837   1.448       .  S
C755        C810   1.448       .  S
N756        N762   1.302       .  A
N756        N757   1.300       .  A
N756      Mn1084   2.087   1_545  S
N757        C765   1.347       .  A
N758        N759   1.302       .  A
N758        N760   1.302       .  A
N758       Mn764   2.096   1_556  S
N759        C766   1.349       .  A
N760        N761   1.300       .  A
N761        C766   1.347       .  A
N762        N763   1.302       .  A
N763        C765   1.349       .  A
C765        C801   1.448       .  S
C766        C828   1.448       .  S
N767        N768   1.300       .  A
N767        N773   1.302       .  A
N768        C776   1.347       .  A
N769        N771   1.302       .  A
N769        N770   1.302       .  A
N770        C777   1.349       .  A
N771        N772   1.300       .  A
N771      Mn1073   2.087       .  S
N772        C777   1.347       .  A
N773        N774   1.302       .  A
N773       Mn787   2.096       .  S
N774        C776   1.349       .  A
Mn775      N1069   2.087   1_545  S
Mn775      Cl788   2.472       .  S
C776        C792   1.448       .  S
C777        C838   1.448       .  S
N778        N779   1.300       .  A
N778        N784   1.302       .  A
N779        C789   1.347       .  A
N780        N781   1.302       .  A
N780        N782   1.302       .  A
N781        C790   1.349       .  A
N782        N783   1.300       .  A
N782       Mn786   2.087       .  S
N783        C790   1.347       .  A
N784        N785   1.302       .  A
N785        C789   1.349       .  A
Mn786      N1054   2.087       .  S
C789        C819   1.448       .  S
C790        C791   1.448       .  S
C791        C889   1.510       .  S
C791        C891   1.513       .  S
C791        C893   1.528       .  S
C792        C883   1.513       .  S
C792        C886   1.528       .  S
C792        C888   1.510       .  S
C793        C798   1.405       .  A
C793        C887   1.474       .  S
C794        C795   1.405       .  A
C794        C890   1.474       .  S
C795        C796   1.405       .  A
C795        H800   1.088       .  S
C796        C881   1.474       .  S
C797        C798   1.405       .  A
C797        C879   1.474       .  S
C798        H799   1.088       .  S
C801        C874   1.529       .  S
C801        C875   1.510       .  S
C801        C878   1.513       .  S
C802       C1101   1.443       .  A
C802        C807   1.405       .  A
C802        C892   1.474       .  S
C803       C1100   1.443   1_545  A
C803        C804   1.405       .  A
C803        C877   1.474       .  S
C804        C805   1.405       .  A
C804        H809   1.088       .  S
C805       C1104   1.443   1_545  A
C805        C872   1.474       .  S
C806       C1103   1.443       .  A
C806        C807   1.405       .  A
C806        C884   1.474       .  S
C807        H808   1.088       .  S
C810        C868   1.528       .  S
C810        C870   1.510       .  S
C810        C871   1.513       .  S
C811        C816   1.405       .  A
C811        C869   1.474       .  S
C812        C813   1.405       .  A
C812        C876   1.474       .  S
C813        C814   1.405       .  A
C813        H818   1.088       .  S
C814        C865   1.474       .  S
C815        C816   1.405       .  A
C815        C864   1.474       .  S
C816        H817   1.088       .  S
C819        C859   1.513       .  S
C819        C862   1.528       .  S
C819        C882   1.510       .  S
C820        C825   1.406       .  A
C820        C894   1.488       .  S
C821        C822   1.406       .  A
C821        C861   1.488       .  S
C822        C823   1.406       .  A
C822        H827   1.089       .  S
C823        C857   1.488       .  S
C824        C825   1.406       .  A
C824        C873   1.488       .  S
C825        H826   1.089       .  S
C828        C856   1.513       .  S
C828        C858   1.528       .  S
C828        C866   1.510       .  S
C829       C1128   1.443       .  A
C829        C834   1.405       .  A
C829        C860   1.474       .  S
C830       C1127   1.443   1_545  A
C830        C831   1.405       .  A
C830        C855   1.474       .  S
C831        C832   1.405       .  A
C831        H836   1.088       .  S
C832       C1131   1.443   1_545  A
C832        C854   1.474       .  S
C833       C1130   1.443       .  A
C833        C834   1.405       .  A
C833        C851   1.474       .  S
C834        H835   1.088       .  S
C837        C849   1.528       .  S
C837        C853   1.513       .  S
C837        C863   1.510       .  S
C838        C848   1.529       .  S
C838        C852   1.513       .  S
C838        C880   1.510       .  S
C839        C844   1.406       .  A
C839        C885   1.488       .  S
C840        C841   1.406       .  A
C840        C847   1.488       .  S
C841        C842   1.406       .  A
C841        H846   1.089       .  S
C842        C850   1.488       .  S
C843        C844   1.406       .  A
C843        C867   1.488       .  S
C844        H845   1.089       .  S
C847        C848   1.243       .  T
C849        C850   1.243       .  T
C851        C852   1.232       .  T
C853        C854   1.232       .  T
C855        C856   1.232       .  T
C857        C858   1.243       .  T
C859        C860   1.232       .  T
C861        C862   1.243       .  T
C863        C864   1.231       .  T
C865        C866   1.231       .  T
C867        C868   1.243       .  T
C869        C870   1.231       .  T
C871        C872   1.232       .  T
C873        C874   1.243       .  T
C875        C876   1.231       .  T
C877        C878   1.232       .  T
C879        C880   1.231       .  T
C881        C882   1.231       .  T
C883        C884   1.232       .  T
C885        C886   1.243       .  T
C887        C888   1.231       .  T
C889        C890   1.231       .  T
C891        C892   1.232       .  T
C893        C894   1.243       .  T
N895        N896   1.300       .  A
N895        N901   1.302       .  A
N895       Mn924   2.087       .  S
N896        C903   1.347       .  A
N897        N899   1.302       .  A
N897        N898   1.302       .  A
N898        C904   1.349       .  A
N899        N900   1.300       .  A
N900        C904   1.347       .  A
N901        N902   1.302       .  A
N901      Mn1062   2.096       .  S
N902        C903   1.349       .  A
C903        C986   1.448       .  S
C904        C959   1.448       .  S
N905        N911   1.302       .  A
N905        N906   1.300       .  A
N906        C914   1.347       .  A
N907        N908   1.302       .  A
N907        N909   1.302       .  A
N907       Mn913   2.096       .  S
N908        C915   1.349       .  A
N909        N910   1.300       .  A
N910        C915   1.347       .  A
N911        N912   1.302       .  A
N912        C914   1.349       .  A
Mn913      N1050   2.096       .  S
Mn913     Cl1086   2.470       .  S
C914        C950   1.448       .  S
C915        C977   1.448       .  S
N916        N917   1.300       .  A
N916        N922   1.302       .  A
N917        C925   1.347       .  A
N918        N920   1.302       .  A
N918        N919   1.302       .  A
N919        C926   1.349       .  A
N920        N921   1.300       .  A
N921        C926   1.347       .  A
N922        N923   1.302       .  A
N922       Mn936   2.096       .  S
N923        C925   1.349       .  A
Mn924      Cl937   2.472       .  S
C925        C941   1.448       .  S
C926        C987   1.448       .  S
N927        N928   1.300       .  A
N927        N933   1.302       .  A
N928        C938   1.347       .  A
N929        N930   1.302       .  A
N929        N931   1.302       .  A
N929      Mn1085   2.096       .  S
N930        C939   1.349       .  A
N931        N932   1.300       .  A
N931       Mn935   2.087       .  S
N932        C939   1.347       .  A
N933        N934   1.302       .  A
N934        C938   1.349       .  A
Mn936      N1078   2.096   1_554  S
Cl937     Mn1062   2.470       .  S
C938        C968   1.448       .  S
C939        C940   1.448       .  S
C940       C1038   1.510       .  S
C940       C1040   1.513       .  S
C940       C1042   1.528       .  S
C941       C1032   1.513       .  S
C941       C1035   1.529       .  S
C941       C1037   1.510       .  S
C942       C1092   1.443   1_554  A
C942        C947   1.405       .  A
C942       C1036   1.474       .  S
C943       C1091   1.443       .  A
C943        C944   1.405       .  A
C943       C1039   1.474       .  S
C944        C945   1.405       .  A
C944        H949   1.088       .  S
C945       C1095   1.443       .  A
C945       C1030   1.474       .  S
C946       C1094   1.443   1_554  A
C946        C947   1.405       .  A
C946       C1028   1.474       .  S
C947        H948   1.088       .  S
C950       C1023   1.528       .  S
C950       C1024   1.510       .  S
C950       C1027   1.513       .  S
C951        C956   1.405       .  A
C951       C1041   1.474       .  S
C952        C953   1.405       .  A
C952       C1026   1.474       .  S
C953        C954   1.405       .  A
C953        H958   1.088       .  S
C954       C1021   1.474       .  S
C955        C956   1.405       .  A
C955       C1033   1.474       .  S
C956        H957   1.088       .  S
C959       C1017   1.528       .  S
C959       C1019   1.510       .  S
C959       C1020   1.513       .  S
C960       C1110   1.443   1_554  A
C960        C965   1.405       .  A
C960       C1018   1.474       .  S
C961       C1109   1.443       .  A
C961        C962   1.405       .  A
C961       C1025   1.474       .  S
C962        C963   1.405       .  A
C962        H967   1.088       .  S
C963       C1113   1.443       .  A
C963       C1014   1.474       .  S
C964       C1112   1.443   1_554  A
C964        C965   1.405       .  A
C964       C1013   1.474       .  S
C965        H966   1.088       .  S
C968       C1008   1.513       .  S
C968       C1011   1.528       .  S
C968       C1031   1.510       .  S
C969        C974   1.406       .  A
C969       C1043   1.488       .  S
C970        C971   1.406       .  A
C970       C1010   1.488       .  S
C971        C972   1.406       .  A
C971        H976   1.089       .  S
C972       C1006   1.488       .  S
C973        C974   1.406       .  A
C973       C1022   1.488       .  S
C974        H975   1.089       .  S
C977       C1005   1.513       .  S
C977       C1007   1.529       .  S
C977       C1015   1.510       .  S
C978        C983   1.405       .  A
C978       C1009   1.474       .  S
C979        C980   1.405       .  A
C979       C1004   1.474       .  S
C980        C981   1.405       .  A
C980        H985   1.088       .  S
C981       C1003   1.474       .  S
C982        C983   1.405       .  A
C982       C1000   1.474       .  S
C983        H984   1.088       .  S
C986        C998   1.528       .  S
C986       C1002   1.513       .  S
C986       C1012   1.510       .  S
C987        C997   1.528       .  S
C987       C1001   1.513       .  S
C987       C1029   1.510       .  S
C988        C993   1.406       .  A
C988       C1034   1.488       .  S
C989        C990   1.406       .  A
C989        C996   1.488       .  S
C990        C991   1.406       .  A
C990        H995   1.089       .  S
C991        C999   1.488       .  S
C992        C993   1.406       .  A
C992       C1016   1.488       .  S
C993        H994   1.089       .  S
C996        C997   1.243       .  T
C998        C999   1.243       .  T
C1000      C1001   1.232       .  T
C1002      C1003   1.232       .  T
C1004      C1005   1.232       .  T
C1006      C1007   1.243       .  T
C1008      C1009   1.232       .  T
C1010      C1011   1.243       .  T
C1012      C1013   1.231       .  T
C1014      C1015   1.231       .  T
C1016      C1017   1.243       .  T
C1018      C1019   1.231       .  T
C1020      C1021   1.232       .  T
C1022      C1023   1.243       .  T
C1024      C1025   1.231       .  T
C1026      C1027   1.232       .  T
C1028      C1029   1.231       .  T
C1030      C1031   1.231       .  T
C1032      C1033   1.232       .  T
C1034      C1035   1.243       .  T
C1036      C1037   1.231       .  T
C1038      C1039   1.231       .  T
C1040      C1041   1.232       .  T
C1042      C1043   1.243       .  T
N1044      N1045   1.300       .  A
N1044      N1050   1.302       .  A
N1044     Mn1073   2.087       .  S
N1045      C1052   1.347       .  A
N1046      N1048   1.302       .  A
N1046      N1047   1.302       .  A
N1047      C1053   1.349       .  A
N1048      N1049   1.300       .  A
N1049      C1053   1.347       .  A
N1050      N1051   1.302       .  A
N1051      C1052   1.349       .  A
C1052      C1135   1.448       .  S
C1053      C1108   1.448       .  S
N1054      N1060   1.302       .  A
N1054      N1055   1.300       .  A
N1055      C1063   1.347       .  A
N1056      N1057   1.302       .  A
N1056      N1058   1.302       .  A
N1056     Mn1062   2.096   1_556  S
N1057      C1064   1.349       .  A
N1058      N1059   1.300       .  A
N1059      C1064   1.347       .  A
N1060      N1061   1.302       .  A
N1061      C1063   1.349       .  A
C1063      C1099   1.448       .  S
C1064      C1126   1.448       .  S
N1065      N1066   1.300       .  A
N1065      N1071   1.302       .  A
N1066      C1074   1.347       .  A
N1067      N1069   1.302       .  A
N1067      N1068   1.302       .  A
N1068      C1075   1.349       .  A
N1069      N1070   1.300       .  A
N1070      C1075   1.347       .  A
N1071      N1072   1.302       .  A
N1071     Mn1085   2.096       .  S
N1072      C1074   1.349       .  A
Mn1073    Cl1086   2.472       .  S
C1074      C1090   1.448       .  S
C1075      C1136   1.448       .  S
N1076      N1077   1.300       .  A
N1076      N1082   1.302       .  A
N1077      C1087   1.347       .  A
N1078      N1079   1.302       .  A
N1078      N1080   1.302       .  A
N1079      C1088   1.349       .  A
N1080      N1081   1.300       .  A
N1080     Mn1084   2.087       .  S
N1081      C1088   1.347       .  A
N1082      N1083   1.302       .  A
N1083      C1087   1.349       .  A
C1087      C1117   1.448       .  S
C1088      C1089   1.448       .  S
C1089      C1187   1.510       .  S
C1089      C1189   1.513       .  S
C1089      C1191   1.528       .  S
C1090      C1181   1.513       .  S
C1090      C1184   1.529       .  S
C1090      C1186   1.510       .  S
C1091      C1096   1.405       .  A
C1091      C1185   1.474       .  S
C1092      C1093   1.405       .  A
C1092      C1188   1.474       .  S
C1093      C1094   1.405       .  A
C1093      H1098   1.088       .  S
C1094      C1179   1.474       .  S
C1095      C1096   1.405       .  A
C1095      C1177   1.474       .  S
C1096      H1097   1.088       .  S
C1099      C1172   1.528       .  S
C1099      C1173   1.510       .  S
C1099      C1176   1.513       .  S
C1100      C1105   1.405       .  A
C1100      C1190   1.474       .  S
C1101      C1102   1.405       .  A
C1101      C1175   1.474       .  S
C1102      C1103   1.405       .  A
C1102      H1107   1.088       .  S
C1103      C1170   1.474       .  S
C1104      C1105   1.405       .  A
C1104      C1182   1.474       .  S
C1105      H1106   1.088       .  S
C1108      C1166   1.528       .  S
C1108      C1168   1.510       .  S
C1108      C1169   1.513       .  S
C1109      C1114   1.405       .  A
C1109      C1167   1.474       .  S
C1110      C1111   1.405       .  A
C1110      C1174   1.474       .  S
C1111      C1112   1.405       .  A
C1111      H1116   1.088       .  S
C1112      C1163   1.474       .  S
C1113      C1114   1.405       .  A
C1113      C1162   1.474       .  S
C1114      H1115   1.088       .  S
C1117      C1157   1.513       .  S
C1117      C1160   1.528       .  S
C1117      C1180   1.510       .  S
C1118      C1123   1.406       .  A
C1118      C1192   1.488       .  S
C1119      C1120   1.406       .  A
C1119      C1159   1.488       .  S
C1120      C1121   1.406       .  A
C1120      H1125   1.089       .  S
C1121      C1155   1.488       .  S
C1122      C1123   1.406       .  A
C1122      C1171   1.488       .  S
C1123      H1124   1.089       .  S
C1126      C1154   1.513       .  S
C1126      C1156   1.529       .  S
C1126      C1164   1.510       .  S
C1127      C1132   1.405       .  A
C1127      C1158   1.474       .  S
C1128      C1129   1.405       .  A
C1128      C1153   1.474       .  S
C1129      C1130   1.405       .  A
C1129      H1134   1.088       .  S
C1130      C1152   1.474       .  S
C1131      C1132   1.405       .  A
C1131      C1149   1.474       .  S
C1132      H1133   1.088       .  S
C1135      C1147   1.528       .  S
C1135      C1151   1.513       .  S
C1135      C1161   1.510       .  S
C1136      C1146   1.528       .  S
C1136      C1150   1.513       .  S
C1136      C1178   1.510       .  S
C1137      C1142   1.406       .  A
C1137      C1183   1.488       .  S
C1138      C1139   1.406       .  A
C1138      C1145   1.488       .  S
C1139      C1140   1.406       .  A
C1139      H1144   1.089       .  S
C1140      C1148   1.488       .  S
C1141      C1142   1.406       .  A
C1141      C1165   1.488       .  S
C1142      H1143   1.089       .  S
C1145      C1146   1.243       .  T
C1147      C1148   1.243       .  T
C1149      C1150   1.232       .  T
C1151      C1152   1.232       .  T
C1153      C1154   1.232       .  T
C1155      C1156   1.243       .  T
C1157      C1158   1.232       .  T
C1159      C1160   1.243       .  T
C1161      C1162   1.231       .  T
C1163      C1164   1.231       .  T
C1165      C1166   1.243       .  T
C1167      C1168   1.231       .  T
C1169      C1170   1.232       .  T
C1171      C1172   1.243       .  T
C1173      C1174   1.231       .  T
C1175      C1176   1.232       .  T
C1177      C1178   1.231       .  T
C1179      C1180   1.231       .  T
C1181      C1182   1.232       .  T
C1183      C1184   1.243       .  T
C1185      C1186   1.231       .  T
C1187      C1188   1.231       .  T
C1189      C1190   1.232       .  T
C1191      C1192   1.243       .  T
