geometry optimzed in LAMMPS
_audit_creation_date              2020-12-01 
_audit_creation_method            'lammps2cif' 
_symmetry_space_group_name_H-M    'P1' 
_symmetry_Int_Tables_number       1 
_symmetry_cell_setting            triclinic 
loop_ 
_symmetry_equiv_pos_as_xyz 
  x,y,z 
_cell_length_a                    74.88470393 
_cell_length_b                    75.0065893339084 
_cell_length_c                    40.4912986126391 
_cell_angle_alpha                 89.84879342162428 
_cell_angle_beta                  89.74996033561354 
_cell_angle_gamma                 89.9813492264489 
loop_ 
_atom_site_label 
_atom_site_type_symbol 
_atom_site_fract_x 
_atom_site_fract_y 
_atom_site_fract_z 
_atom_site_charge 
In1        In  0.83489930  0.33275116  0.05410684     1.36900
C2          C  0.80304705  0.33595996  0.08254690     0.77300
O3          O  0.82421459  0.30864687  0.02777503    -0.61100
O4          O  0.84545343  0.30541828  0.06190114    -0.52100
C5          C  0.84944432  0.34708159  0.00020582     0.70000
O6          O  0.83443464  0.35212979  0.01105116    -0.46900
C7          C  0.85440340  0.34859344  0.09957467     0.74700
O8          O  0.80585585  0.34081597  0.05302009    -0.58800
O9          O  0.85665707  0.33252924  0.09151247    -0.48900
O10         O  0.81639592  0.32928366  0.09679609    -0.55200
C11         C  0.83495298  0.29811627  0.04181584     0.84800
O12         O  0.85641285  0.33458386  0.01638423    -0.57100
O13         O  0.84246253  0.35671342  0.08360689    -0.60400
In14       In  0.66960302  0.33572876  0.17186634     1.36900
C15         C  0.70224224  0.33905421  0.14614973     0.77300
O16         O  0.67814214  0.31058726  0.19762905    -0.61100
O17         O  0.66001801  0.30851386  0.15766699    -0.52100
C18         C  0.65326616  0.34923565  0.22498260     0.70000
O19         O  0.66879248  0.35409951  0.21648607    -0.46900
C20         C  0.65208489  0.35429535  0.12704554     0.74700
O21         O  0.69935410  0.34113159  0.17674154    -0.58800
O22         O  0.64927097  0.33788616  0.13188251    -0.48900
O23         O  0.68859900  0.33524282  0.12960573    -0.55200
C24         C  0.66908880  0.30047925  0.17925652     0.84800
O25         O  0.64670894  0.33723352  0.20705507    -0.57100
O26         O  0.66349864  0.36122055  0.14593584    -0.60400
In27       In  0.91290791  0.58239798  0.19052973     1.36900
C28         C  0.90674536  0.54851580  0.20678241     0.90100
O29         O  0.93949786  0.57998405  0.16405195    -0.61100
O30         O  0.93894675  0.59145101  0.21171902    -0.52100
C31         C  0.89550835  0.59217587  0.13585301     0.70000
O32         O  0.89340475  0.57711235  0.14917540    -0.46900
C33         C  0.89987192  0.60215778  0.23967953     0.74700
O34         O  0.92103041  0.55359297  0.19303308    -0.58800
O35         O  0.90100551  0.60781558  0.21042811    -0.48900
O36         O  0.89520117  0.56062195  0.21034534    -0.55200
C37         C  0.94830046  0.58679943  0.18730305     0.84800
O38         O  0.90694897  0.60182282  0.14981634    -0.57100
O39         O  0.90573683  0.58657859  0.24376665    -0.60400
In40       In  0.91156984  0.41629180  0.30141226     1.36900
C41         C  0.91297922  0.44891270  0.27532629     0.77300
O42         O  0.93649330  0.42148050  0.33068784    -0.61100
O43         O  0.93755481  0.40286202  0.29129094    -0.52100
C44         C  0.89479946  0.40397199  0.35511530     0.70000
O45         O  0.90129112  0.39400984  0.33314464    -0.46900
C46         C  0.89357461  0.40119796  0.25287613     0.74700
O47         O  0.90211743  0.44490862  0.29815361    -0.58800
O48         O  0.90855538  0.39553368  0.26239067    -0.48900
O49         O  0.92318549  0.43639138  0.26679817    -0.55200
C50         C  0.94595658  0.41108313  0.31345518     0.84800
O51         O  0.89724056  0.42041197  0.35001631    -0.57100
O52         O  0.88762208  0.41432176  0.26887603    -0.60400
In53       In  0.58429624  0.56887394  0.08579975     1.36900
C54         C  0.58417496  0.53631505  0.05864009     0.77300
O55         O  0.55814890  0.56221276  0.11074092    -0.61100
O56         O  0.55839349  0.58192505  0.07314335    -0.52100
C57         C  0.60059937  0.58107684  0.14027926     0.70000
O58         O  0.60384596  0.56585934  0.12837630    -0.46900
C59         C  0.60219583  0.58702207  0.04049710     0.74700
O60         O  0.58328355  0.55048948  0.04212224    -0.58800
O61         O  0.58591906  0.58983871  0.04672575    -0.48900
O62         O  0.58555963  0.53870774  0.08941587    -0.55200
C63         C  0.54922209  0.57295385  0.09333177     0.84800
O64         O  0.58867597  0.58954805  0.12500512    -0.57100
O65         O  0.60948124  0.57534364  0.05850581    -0.60400
In66       In  0.58665787  0.41360619  0.42480314     1.36900
C67         C  0.58737893  0.44694723  0.44767296     0.77300
O68         O  0.55997841  0.41860994  0.40040769    -0.61100
O69         O  0.56080202  0.40255576  0.44346868    -0.52100
C70         C  0.60572653  0.40226125  0.37250379     0.70000
O71         O  0.60991489  0.41591392  0.38879288    -0.46900
C72         C  0.60168731  0.39445979  0.47190733     0.74700
O73         O  0.58705264  0.44371665  0.41701987    -0.58800
O74         O  0.58870520  0.38874567  0.45525740    -0.48900
O75         O  0.58730810  0.43326237  0.46565911    -0.55200
C76         C  0.55131530  0.40960383  0.42145550     0.84800
O77         O  0.59152229  0.39495449  0.38222169    -0.57100
O78         O  0.60745637  0.40954986  0.46319273    -0.60400
In79       In  0.82899532  0.65791481  0.43974627     1.36900
C80         C  0.79671312  0.65238005  0.41382586     0.77300
O81         O  0.81756557  0.68224119  0.46439157    -0.61100
O82         O  0.83743534  0.68586551  0.42744246    -0.52100
C83         C  0.84544093  0.64574624  0.49382694     0.70000
O84         O  0.83124299  0.63871139  0.48316670    -0.46900
C85         C  0.84987749  0.64155065  0.39663656     0.74700
O86         O  0.79966149  0.65061033  0.44440849    -0.58800
O87         O  0.84813006  0.65829251  0.39727650    -0.48900
O88         O  0.81033431  0.65618594  0.39697578    -0.55200
C89         C  0.82681695  0.69309895  0.44766126     0.84800
O90         O  0.85039247  0.65934305  0.47788413    -0.57100
O91         O  0.84102049  0.63322985  0.41831287    -0.60400
In92       In  0.66074418  0.65465667  0.33685636     1.36900
C93         C  0.69405310  0.65199502  0.35984207     0.77300
O94         O  0.66910022  0.68087207  0.31339411    -0.61100
O95         O  0.65167641  0.68120040  0.35482343    -0.52100
C96         C  0.64579289  0.63918662  0.28367791     0.70000
O97         O  0.65906892  0.63249566  0.29829724    -0.46900
C98         C  0.64122429  0.63888052  0.38324426     0.74700
O99         O  0.69063993  0.65029239  0.32939062    -0.58800
O100        O  0.63676400  0.65353753  0.37034195    -0.48900
O101        O  0.68052560  0.65470871  0.37765900    -0.55200
C102        C  0.66039045  0.69016358  0.33389387     0.84800
O103        O  0.64104833  0.65404622  0.29511745    -0.57100
O104        O  0.65532305  0.63213427  0.37157950    -0.60400
In105      In  0.83886691  0.15850958  0.06170414     1.36900
C106        C  0.80429299  0.15665970  0.07765004     0.77300
O107        O  0.84829613  0.13416850  0.08942153    -0.61100
O108        O  0.85225432  0.15963736  0.11080754    -0.52100
C109        C  0.85430203  0.14246366  0.01046553     0.70000
O110        O  0.86195473  0.15420924  0.02748061    -0.46900
C111        C  0.84388789  0.19301510  0.04978300     0.74700
O112        O  0.81004786  0.15333455  0.04899636    -0.58800
O113        O  0.85355412  0.18398183  0.06886939    -0.48900
O114        O  0.81624153  0.16069878  0.09804186    -0.55200
C115        C  0.85415675  0.14301694  0.11354986     0.84800
O116        O  0.83856188  0.13893082  0.01959262    -0.57100
O117        O  0.83174344  0.18424014  0.03577337    -0.60400
In118      In  0.67078517  0.15914763  0.16507082     1.36900
C119        C  0.70565176  0.15845326  0.15235733     0.77300
O120        O  0.66854500  0.13355413  0.13628425    -0.61100
O121        O  0.65134924  0.15492328  0.12377721    -0.52100
C122        C  0.65545742  0.14609829  0.22007181     0.70000
O123        O  0.66870452  0.13882213  0.20639975    -0.46900
C124        C  0.66651506  0.19442941  0.16409120     0.74700
O125        O  0.69951359  0.15722093  0.18136576    -0.58800
O126        O  0.65779604  0.18410484  0.14560998    -0.48900
O127        O  0.69394227  0.16012353  0.13032998    -0.55200
C128        C  0.65638357  0.13923094  0.11759303     0.84800
O129        O  0.65031293  0.16012596  0.20592762    -0.57100
O130        O  0.67727932  0.18662785  0.18318974    -0.60400
In131      In  0.90856129  0.06922724  0.31340175     1.36900
C132        C  0.90560447  0.03413481  0.30946801     0.77300
O133        O  0.89568203  0.09234655  0.28711189    -0.61100
O134        O  0.90125231  0.06891548  0.25980778    -0.52100
C135        C  0.89159079  0.08373488  0.36451563     0.70000
O136        O  0.88641935  0.06937726  0.35154014    -0.46900
C137        C  0.94364927  0.07461982  0.31039329     0.74700
O138        O  0.91739054  0.04147807  0.32690251    -0.58800
O139        O  0.93333782  0.07788403  0.28667034    -0.48900
O140        O  0.89432899  0.04470704  0.29723844    -0.55200
C141        C  0.89500224  0.08451388  0.25961779     0.84800
O142        O  0.90560259  0.09011533  0.35195994    -0.57100
O143        O  0.93593614  0.06887886  0.33601980    -0.60400
In144      In  0.91272729  0.90827861  0.19481597     1.36900
C145        C  0.90805918  0.94092237  0.21788717     0.77300
O146        O  0.88950320  0.90204438  0.22802047    -0.61100
O147        O  0.91408416  0.88906508  0.23750540    -0.52100
C148        C  0.89757581  0.89178349  0.14385083     0.70000
O149        O  0.89455433  0.90796222  0.15023783    -0.46900
C150        C  0.94728797  0.91032185  0.17968743     0.74700
O151        O  0.89974898  0.93523292  0.19292445    -0.58800
O152        O  0.94097368  0.89907062  0.19977473    -0.48900
O153        O  0.91899165  0.93002391  0.23020062    -0.55200
C154        C  0.89805153  0.89139861  0.24612716     0.84800
O155        O  0.90875177  0.88449523  0.16269565    -0.57100
O156        O  0.93572244  0.92008215  0.16600608    -0.60400
In157      In  0.59233174  0.07899011  0.42123393     1.36900
C158        C  0.59519847  0.04545161  0.44390653     0.77300
O159        O  0.61447800  0.08460567  0.45706967    -0.61100
O160        O  0.59367877  0.10359684  0.45266367    -0.52100
C161        C  0.60970514  0.09119641  0.36739149     0.70000
O162        O  0.59629494  0.09881414  0.37977091    -0.46900
C163        C  0.55673429  0.08105804  0.41555675     0.74700
O164        O  0.59669235  0.04928714  0.41360659    -0.58800
O165        O  0.56534998  0.08862995  0.43813428    -0.48900
O166        O  0.59200774  0.05868331  0.46209316    -0.55200
C167        C  0.60789898  0.09912228  0.46700690     0.84800
O168        O  0.61388700  0.07688672  0.38177936    -0.57100
O169        O  0.56637212  0.07246468  0.39549527    -0.60400
In170      In  0.59016089  0.91816714  0.06330130     1.36900
C171        C  0.59266033  0.95135690  0.03978553     0.77300
O172        O  0.61520023  0.91311401  0.03465748    -0.61100
O173        O  0.59319293  0.89579998  0.02695448    -0.52100
C174        C  0.60511957  0.90483376  0.11799545     0.70000
O175        O  0.60916597  0.91991243  0.10634412    -0.46900
C176        C  0.55465019  0.91603655  0.06772828     0.74700
O177        O  0.58996210  0.93797873  0.02174635    -0.58800
O178        O  0.56381071  0.90737253  0.04711012    -0.48900
O179        O  0.59413989  0.94776115  0.07016417    -0.55200
C180        C  0.60897645  0.89997406  0.01913543     0.84800
O181        O  0.59286659  0.89702334  0.10252675    -0.57100
O182        O  0.56372764  0.92574607  0.08674003    -0.60400
In183      In  0.82459851  0.83501303  0.44474190     1.36900
C184        C  0.79036254  0.83654218  0.42814261     0.77300
O185        O  0.82704135  0.85864555  0.41093469    -0.61100
O186        O  0.84747254  0.83909839  0.40952922    -0.52100
C187        C  0.83789494  0.85080370  0.49841408     0.70000
O188        O  0.82476778  0.85690664  0.48273880    -0.46900
C189        C  0.82869622  0.79967208  0.44315299     0.74700
O190        O  0.79520154  0.83689659  0.45800112    -0.58800
O191        O  0.83652070  0.81017730  0.42354546    -0.48900
O192        O  0.80295449  0.83502218  0.40766613    -0.55200
C193        C  0.84139279  0.85344435  0.39777572     0.84800
O194        O  0.84364082  0.83616062  0.48760158    -0.57100
O195        O  0.81898788  0.80730983  0.46443956    -0.60400
In196      In  0.66344934  0.83139417  0.31607012     1.36900
C197        C  0.69692545  0.83570012  0.33594123     0.77300
O198        O  0.65848268  0.85413909  0.35060716    -0.61100
O199        O  0.64169915  0.83141435  0.35437152    -0.52100
C200        C  0.64768176  0.84643163  0.26344908     0.70000
O201        O  0.66169705  0.85262501  0.27618303    -0.46900
C202        C  0.66484037  0.79595773  0.31119548     0.74700
O203        O  0.69259157  0.83723561  0.30590125    -0.58800
O204        O  0.65563153  0.80403154  0.33255437    -0.48900
O205        O  0.68419770  0.83197441  0.35508271    -0.55200
C206        C  0.64601591  0.84639526  0.36599712     0.84800
O207        O  0.64203507  0.83244908  0.27722688    -0.57100
O208        O  0.67291876  0.80608983  0.29117207    -0.60400
In209      In  0.08598849  0.42288394  0.32774055     1.36900
C210        C  0.08961399  0.45634458  0.30633007     0.77300
O211        O  0.10660765  0.41657804  0.28971624    -0.61100
O212        O  0.08592988  0.39769079  0.29784527    -0.52100
C213        C  0.10318099  0.40983575  0.38020737     0.70000
O214        O  0.08815894  0.40427337  0.37110846    -0.46900
C215        C  0.05071346  0.42211005  0.33431200     0.74700
O216        O  0.09013581  0.45234440  0.33665046    -0.58800
O217        O  0.05906123  0.41395103  0.31191691    -0.48900
O218        O  0.08729051  0.44325334  0.28740700    -0.55200
C219        C  0.09976879  0.40185345  0.28176218     0.84800
O220        O  0.10918672  0.42255811  0.36309534    -0.57100
O221        O  0.06047525  0.43100124  0.35351305    -0.60400
In222      In  0.08974827  0.58141549  0.18253079     1.36900
C223        C  0.09180245  0.54838525  0.20703479     0.77300
O224        O  0.11468294  0.58743663  0.21043488    -0.61100
O225        O  0.09124180  0.60191970  0.22283982    -0.52100
C226        C  0.10643485  0.59533018  0.12974227     0.70000
O227        O  0.10956665  0.57979486  0.14025634    -0.46900
C228        C  0.05454954  0.58304928  0.17206122     0.74700
O229        O  0.08758646  0.56171192  0.22423720    -0.58800
O230        O  0.06244934  0.59244664  0.19324603    -0.48900
O231        O  0.09489159  0.55193915  0.17702966    -0.55200
C232        C  0.10755372  0.59906496  0.22865035     0.84800
O233        O  0.09422679  0.60331533  0.14531208    -0.57100
O234        O  0.06478505  0.57316406  0.15536538    -0.60400
In235      In  0.16219132  0.33900698  0.07841583     1.36900
C236        C  0.19510075  0.33931670  0.10220429     0.77300
O237        O  0.15852830  0.36398484  0.10675684    -0.61100
O238        O  0.14452127  0.34083400  0.12306292    -0.52100
C239        C  0.14536748  0.35535683  0.02927627     0.70000
O240        O  0.16191286  0.35741862  0.03418009    -0.46900
C241        C  0.16006170  0.30501375  0.06138637     0.74700
O242        O  0.19145085  0.34583421  0.07414220    -0.58800
O243        O  0.15038411  0.31171621  0.08376630    -0.48900
O244        O  0.18202731  0.33241689  0.11718347    -0.55200
C245        C  0.14806887  0.35711659  0.12772261     0.84800
O246        O  0.13781277  0.34473602  0.04903809    -0.57100
O247        O  0.17048137  0.31587372  0.04728767    -0.60400
In248      In  0.33089774  0.33638674  0.17574402     1.36900
C249        C  0.29771969  0.33922180  0.15326734     0.77300
O250        O  0.33622715  0.35811477  0.13963801    -0.61100
O251        O  0.35630498  0.33842455  0.14620594    -0.52100
C252        C  0.34193733  0.35481407  0.22808897     0.70000
O253        O  0.32757020  0.35831834  0.21338749    -0.46900
C254        C  0.33389169  0.30104433  0.17938950     0.74700
O255        O  0.30103150  0.33789457  0.18376056    -0.58800
O256        O  0.33963891  0.31018874  0.15553075    -0.48900
O257        O  0.31128260  0.33869226  0.13485698    -0.55200
C258        C  0.35127391  0.35220264  0.13091395     0.84800
O259        O  0.35002970  0.34136408  0.21705695    -0.57100
O260        O  0.32644724  0.31002570  0.20188686    -0.60400
In261      In  0.16555627  0.66932725  0.42785097     1.36900
C262        C  0.20013093  0.66908853  0.41075589     0.77300
O263        O  0.16232630  0.64787444  0.38994721    -0.61100
O264        O  0.14076436  0.66575287  0.39771363    -0.52100
C265        C  0.15296800  0.65393868  0.48331551     0.70000
O266        O  0.16249977  0.64561893  0.46275027    -0.46900
C267        C  0.16080534  0.70440220  0.42937877     0.74700
O268        O  0.19484735  0.66585313  0.43983799    -0.58800
O269        O  0.15293891  0.69450389  0.40893753    -0.48900
O270        O  0.18773684  0.67231194  0.39070777    -0.55200
C271        C  0.14684722  0.65270006  0.38164142     0.84800
O272        O  0.15054639  0.67004965  0.47597579    -0.57100
O273        O  0.17104540  0.69627827  0.44898919    -0.60400
In274      In  0.33208153  0.66494746  0.31278747     1.36900
C275        C  0.29737154  0.66540623  0.32874169     0.77300
O276        O  0.33560115  0.63981759  0.34166472    -0.61100
O277        O  0.35045296  0.66251551  0.35647056    -0.52100
C278        C  0.34817992  0.64921876  0.26103601     0.70000
O279        O  0.33285262  0.64466991  0.27101339    -0.46900
C280        C  0.33617126  0.70004222  0.30718191     0.74700
O281        O  0.30273379  0.66367915  0.29929999    -0.58800
O282        O  0.34332857  0.69104142  0.32989435    -0.48900
O283        O  0.30972750  0.66648598  0.34957270    -0.55200
C284        C  0.34648642  0.64642072  0.36195563     0.84800
O285        O  0.35485829  0.66197209  0.27697210    -0.57100
O286        O  0.32745029  0.69094770  0.28663299    -0.60400
In287      In  0.40994344  0.42030298  0.42282208     1.36900
C288        C  0.40705275  0.45386894  0.44374714     0.77300
O289        O  0.38422263  0.41391562  0.44852695    -0.61100
O290        O  0.40807336  0.40178878  0.46595989    -0.52100
C291        C  0.39644805  0.40416746  0.36982156     0.70000
O292        O  0.39118600  0.41938991  0.37888102    -0.46900
C293        C  0.44524111  0.41841904  0.41453467     0.74700
O294        O  0.40505954  0.44966837  0.41376287    -0.58800
O295        O  0.43689891  0.40860765  0.43471773    -0.48900
O296        O  0.41045935  0.44092108  0.46255798    -0.55200
C297        C  0.39142467  0.40373164  0.46943162     0.84800
O298        O  0.40871509  0.39771428  0.38730162    -0.57100
O299        O  0.43545612  0.42906460  0.39858627    -0.60400
In300      In  0.40910332  0.58042633  0.06074425     1.36900
C301        C  0.40663301  0.54686763  0.03855011     0.77300
O302        O  0.38909301  0.58633317  0.02193182    -0.61100
O303        O  0.40693323  0.60705753  0.03509192    -0.52100
C304        C  0.39132003  0.59164321  0.11457908     0.70000
O305        O  0.38484604  0.58050160  0.09469261    -0.46900
C306        C  0.44447125  0.58282246  0.06605924     0.74700
O307        O  0.40451284  0.55090631  0.06860746    -0.58800
O308        O  0.43581804  0.59034580  0.04331151    -0.48900
O309        O  0.41012327  0.55997215  0.02010324    -0.55200
C310        C  0.39423094  0.60210244  0.01697629     0.84800
O311        O  0.40708543  0.59619499  0.10778455    -0.57100
O312        O  0.43498388  0.57397020  0.08604650    -0.60400
In313      In  0.17343353  0.84364177  0.42773271     1.36900
C314        C  0.20704112  0.84102484  0.40592792     0.77300
O315        O  0.17769859  0.81953985  0.45937539    -0.61100
O316        O  0.15973964  0.81762190  0.41897605    -0.52100
C317        C  0.15977918  0.86092181  0.47992294     0.70000
O318        O  0.17638269  0.85903325  0.47555378    -0.46900
C319        C  0.15958608  0.86037958  0.37616626     0.74700
O320        O  0.20195690  0.85354591  0.42455542    -0.58800
O321        O  0.15411625  0.84534718  0.38580341    -0.48900
O322        O  0.19506379  0.82985417  0.39926040    -0.55200
C323        C  0.16757816  0.80973462  0.44235740     0.84800
O324        O  0.15037979  0.85395030  0.45773211    -0.57100
O325        O  0.17210053  0.86681383  0.39306033    -0.60400
In326      In  0.34152434  0.84055496  0.32645347     1.36900
C327        C  0.30724928  0.84731047  0.33922042     0.77300
O328        O  0.33650039  0.81373571  0.30482729    -0.61100
O329        O  0.35029725  0.81496443  0.35045726    -0.52100
C330        C  0.35448821  0.85485830  0.27093502     0.70000
O331        O  0.35921857  0.83990851  0.28196353    -0.46900
C332        C  0.36141864  0.85319272  0.37496931     0.74700
O333        O  0.31248029  0.83339368  0.32478631    -0.58800
O334        O  0.36728530  0.85160759  0.34592539    -0.48900
O335        O  0.31942207  0.85852838  0.34459178    -0.55200
C336        C  0.34385699  0.80528108  0.32804445     0.84800
O337        O  0.34221046  0.86223971  0.28739893    -0.57100
O338        O  0.34566981  0.84773561  0.37919160    -0.60400
In339      In  0.41362751  0.92634491  0.07281161     1.36900
C340        C  0.40954110  0.95929324  0.04858103     0.77300
O341        O  0.43903736  0.93673127  0.09529394    -0.61100
O342        O  0.44044701  0.91376972  0.06509861    -0.52100
C343        C  0.39853865  0.91370223  0.12791756     0.70000
O344        O  0.39369400  0.92811779  0.11459291    -0.46900
C345        C  0.39790100  0.90551460  0.02892797     0.74700
O346        O  0.41223168  0.94595629  0.03039671    -0.58800
O347        O  0.41458636  0.90766857  0.02991874    -0.48900
O348        O  0.40848762  0.95565118  0.07894557    -0.55200
C349        C  0.44878780  0.92496327  0.08228355     0.84800
O350        O  0.41153609  0.90622517  0.11376840    -0.57100
O351        O  0.38922502  0.91425114  0.05021587    -0.60400
In352      In  0.41524718  0.08708300  0.43670036     1.36900
C353        C  0.41240770  0.05307684  0.45612087     0.77300
O354        O  0.44204343  0.08039236  0.41441892    -0.61100
O355        O  0.44131252  0.09742028  0.45610939    -0.52100
C356        C  0.39997759  0.10019321  0.38174331     0.70000
O357        O  0.41541977  0.10433266  0.39114875    -0.46900
C358        C  0.39894158  0.10680409  0.48219724     0.74700
O359        O  0.41128553  0.05763411  0.42615236    -0.58800
O360        O  0.41377214  0.11112110  0.46968932    -0.48900
O361        O  0.41508915  0.06584637  0.47556950    -0.55200
C362        C  0.45080476  0.08952036  0.43491957     0.84800
O363        O  0.39242953  0.08877872  0.39990009    -0.57100
O364        O  0.39228123  0.09273376  0.47058144    -0.60400
In365      In  0.16062690  0.16516217  0.06696726     1.36900
C366        C  0.19273618  0.16697698  0.09526687     0.77300
O367        O  0.16720480  0.19193054  0.04447497    -0.61100
O368        O  0.14337986  0.18920549  0.07249790    -0.52100
C369        C  0.14944226  0.14725884  0.01350504     0.70000
O370        O  0.16575129  0.14872033  0.02081737    -0.46900
C371        C  0.14633151  0.14610545  0.11519508     0.74700
O372        O  0.19054185  0.16082487  0.06648386    -0.58800
O373        O  0.14136951  0.16179315  0.10879424    -0.48900
O374        O  0.17864827  0.17263194  0.10871367    -0.55200
C375        C  0.15371065  0.19949233  0.05694994     0.84800
O376        O  0.13911686  0.15551981  0.03271528    -0.57100
O377        O  0.15818781  0.14001941  0.09609662    -0.60400
In378      In  0.32595232  0.16048638  0.18681781     1.36900
C379        C  0.29279065  0.16004621  0.16255045     0.77300
O380        O  0.31966581  0.18539744  0.21564377    -0.61100
O381        O  0.33659770  0.18743309  0.17371966    -0.52100
C382        C  0.34030811  0.14280574  0.23795775     0.70000
O383        O  0.32460555  0.13991994  0.22802493    -0.46900
C384        C  0.34263288  0.14369154  0.13812601     0.74700
O385        O  0.29564815  0.15866820  0.19322484    -0.58800
O386        O  0.34723066  0.15906210  0.14758210    -0.48900
O387        O  0.30666999  0.16173251  0.14527608    -0.55200
C388        C  0.32864928  0.19542765  0.19683915     0.84800
O389        O  0.34828172  0.15498807  0.22233960    -0.57100
O390        O  0.33004528  0.13677688  0.15459263    -0.60400
In391      In  0.08888055  0.91998040  0.18025082     1.36900
C392        C  0.09054938  0.95360342  0.20131047     0.77300
O393        O  0.06067888  0.92638297  0.16482186    -0.61100
O394        O  0.06480246  0.90559401  0.19953989    -0.52100
C395        C  0.10396587  0.90960849  0.12305669     0.70000
O396        O  0.11257684  0.91737243  0.14541817    -0.46900
C397        C  0.10621690  0.90011851  0.22363207     0.74700
O398        O  0.08872754  0.94047576  0.22040972    -0.58800
O399        O  0.09271542  0.89448541  0.20831789    -0.48900
O400        O  0.09142187  0.94957836  0.17107036    -0.55200
C401        C  0.05373195  0.91454164  0.18298931     0.84800
O402        O  0.08760235  0.90789542  0.12939511    -0.57100
O403        O  0.11112445  0.91563478  0.21573138    -0.60400
In404      In  0.08488082  0.08002885  0.31531699     1.36900
C405        C  0.09114717  0.04684016  0.29505037     0.77300
O406        O  0.06037454  0.07079603  0.34209046    -0.61100
O407        O  0.05721002  0.08484278  0.29683290    -0.52100
C408        C  0.09781072  0.09556379  0.36928007     0.70000
O409        O  0.08243236  0.09851747  0.35817175    -0.46900
C410        C  0.09840912  0.10174530  0.27013369     0.74700
O411        O  0.09319511  0.05138417  0.32483775    -0.58800
O412        O  0.08322870  0.10428830  0.28285704    -0.48900
O413        O  0.08629894  0.05930064  0.27625324    -0.55200
C414        C  0.04976188  0.07716432  0.32098421     0.84800
O415        O  0.10662016  0.08411983  0.35323743    -0.57100
O416        O  0.10674720  0.08847027  0.28137776    -0.60400
C417        C  0.09139662  0.97210415  0.21356203    -0.05500
C418        C  0.08823964  0.98640547  0.19198714    -0.05500
C419        C  0.08819061  0.00389583  0.20367053    -0.23600
C420        C  0.09145699  0.00738816  0.23710345     0.18600
C421        C  0.09507809  0.99315108  0.25898057     0.15800
C422        C  0.09494911  0.97556075  0.24708346    -0.18700
C423        C  0.09846000  0.99678359  0.29240523    -0.20500
C424        C  0.09770126  0.01431980  0.30419611    -0.13000
C425        C  0.09358226  0.02845683  0.28272255     0.03600
C426        C  0.09079970  0.02487829  0.24907201    -0.25200
H427        H  0.08544380  0.98402744  0.16613797     0.08700
H428        H  0.08540697  0.01469403  0.18659792     0.12300
H429        H  0.09751313  0.96458802  0.26387563     0.12200
H430        H  0.10137998  0.98605145  0.30950471     0.12000
H431        H  0.09995491  0.01677759  0.33017674     0.12500
H432        H  0.08769744  0.03569150  0.23220676     0.14500
C433        C  0.13921925  0.13583871  0.14324741    -0.05500
C434        C  0.14667839  0.11920615  0.15110782    -0.05500
C435        C  0.14040013  0.10952575  0.17814479    -0.23600
C436        C  0.12648700  0.11629060  0.19761446     0.18600
C437        C  0.11881533  0.13300797  0.18989880     0.15800
C438        C  0.12532481  0.14275446  0.16283054    -0.18700
C439        C  0.10467857  0.13956181  0.20922546    -0.20500
C440        C  0.09805068  0.12948061  0.23566156    -0.13000
C441        C  0.10568263  0.11289352  0.24339041     0.03600
C442        C  0.11999621  0.10646555  0.22444342    -0.25200
H443        H  0.15747916  0.11371274  0.13644478     0.08700
H444        H  0.14638551  0.09671165  0.18375709     0.12300
H445        H  0.11954246  0.15561195  0.15693616     0.12200
H446        H  0.09863431  0.15232924  0.20366736     0.12000
H447        H  0.08696490  0.13462085  0.25002495     0.12500
H448        H  0.12582891  0.09357246  0.23008511     0.14500
C449        C  0.14266427  0.13752929  0.48292329    -0.05500
C450        C  0.15461023  0.12850314  0.46196038    -0.05500
C451        C  0.14826160  0.11817617  0.43575739    -0.23600
C452        C  0.12984667  0.11667712  0.43012139     0.18600
C453        C  0.11775994  0.12592711  0.45083737     0.15800
C454        C  0.12423421  0.13629504  0.47695792    -0.18700
C455        C  0.09936671  0.12461269  0.44519474    -0.20500
C456        C  0.09297824  0.11443259  0.41899651    -0.13000
C457        C  0.10483071  0.10521162  0.39816960     0.03600
C458        C  0.12329016  0.10622002  0.40405782    -0.25200
H459        H  0.16887053  0.12924032  0.46610178     0.08700
H460        H  0.15774251  0.11126513  0.42006599     0.12300
H461        H  0.11537345  0.14492189  0.99123603     0.12200
H462        H  0.08991833  0.13158930  0.46086775     0.12000
H463        H  0.07871210  0.11384464  0.41489922     0.12500
H464        H  0.13253042  0.09926747  0.38791125     0.14500
C465        C  0.27495391  0.15952423  0.14705509    -0.05500
C466        C  0.27358764  0.15337760  0.11441386    -0.05500
C467        C  0.25725466  0.15347932  0.09803224    -0.23600
C468        C  0.24194085  0.16004305  0.11373248     0.18600
C469        C  0.24307146  0.16634824  0.14659429     0.15800
C470        C  0.25957076  0.16583856  0.16328887    -0.18700
C471        C  0.22770651  0.17319619  0.16191076    -0.20500
C472        C  0.21143720  0.17364086  0.14497891    -0.13000
C473        C  0.21018133  0.16719478  0.11244155     0.03600
C474        C  0.22555156  0.16044649  0.09698307    -0.25200
H475        H  0.28526866  0.14843250  0.10145645     0.08700
H476        H  0.25665110  0.14858972  0.07286412     0.12300
H477        H  0.26055198  0.17078869  0.18833593     0.12200
H478        H  0.22825515  0.17818647  0.18697125     0.12000
H479        H  0.19977885  0.17889176  0.15748702     0.12500
H480        H  0.22475886  0.15543387  0.07189847     0.14500
C481        C  0.35073745  0.13469156  0.10935690    -0.05500
C482        C  0.34315848  0.11884023  0.09746633    -0.05500
C483        C  0.35014207  0.11048438  0.06952073    -0.23600
C484        C  0.36493906  0.11774955  0.05307265     0.18600
C485        C  0.37275982  0.13366126  0.06485994     0.15800
C486        C  0.36553653  0.14210669  0.09283553    -0.18700
C487        C  0.38774291  0.14073645  0.04858402    -0.20500
C488        C  0.39506681  0.13197325  0.02125431    -0.13000
C489        C  0.38739588  0.11612873  0.00948868     0.03600
C490        C  0.37218754  0.10920490  0.02532398    -0.25200
H491        H  0.33165904  0.11296304  0.10961834     0.08700
H492        H  0.34399307  0.09828507  0.06083322     0.12300
H493        H  0.37144063  0.15436565  0.10176519     0.12200
H494        H  0.39393699  0.15290468  0.05724590     0.12000
H495        H  0.40683129  0.13751870  0.00945991     0.12500
H496        H  0.36625425  0.09690520  0.01658208     0.14500
C497        C  0.34887820  0.13273928  0.26528447    -0.05500
C498        C  0.33934930  0.11979101  0.28328119    -0.05500
C499        C  0.34749221  0.11044130  0.30920571    -0.23600
C500        C  0.36536198  0.11381123  0.31754972     0.18600
C501        C  0.37513174  0.12659996  0.29921123     0.15800
C502        C  0.36685488  0.13595820  0.27332791    -0.18700
C503        C  0.39299938  0.12996046  0.30723914    -0.20500
C504        C  0.40104704  0.12103587  0.33358688    -0.13000
C505        C  0.39144442  0.10853022  0.35249817     0.03600
C506        C  0.37358323  0.10482192  0.34409268    -0.25200
H507        H  0.32553662  0.11696865  0.27743687     0.08700
H508        H  0.33977656  0.10064167  0.32284363     0.12300
H509        H  0.37442223  0.14580199  0.25950102     0.12200
H510        H  0.40071652  0.13966320  0.29335859     0.12000
H511        H  0.41479376  0.12413166  0.33946640     0.12500
H512        H  0.36601705  0.09522296  0.35849534     0.14500
C513        C  0.40832085  0.97773755  0.03571915    -0.05500
C514        C  0.40922792  0.99211338  0.05778026    -0.05500
C515        C  0.41287022  0.00957052  0.54747075    -0.23600
C516        C  0.41121026  0.01315926  0.51365006     0.18600
C517        C  0.40683288  0.99887353  0.98972478     0.15800
C518        C  0.40698995  0.98119910  0.00159193    -0.18700
C519        C  0.40559530  0.00256582  0.95577103    -0.20500
C520        C  0.40794898  0.02031562  0.44588005    -0.13000
C521        C  0.41078856  0.03444511  0.46795800     0.03600
C522        C  0.41221460  0.03073066  0.50189175    -0.25200
H523        H  0.41031804  0.98979445  0.08412309     0.08700
H524        H  0.41466454  0.02032730  0.56497615     0.12300
H525        H  0.40623488  0.97020145  0.98435996     0.12200
H526        H  0.40444288  0.99181221  0.93809906     0.12000
H527        H  0.40667490  0.02286836  0.41965765     0.12500
H528        H  0.41429537  0.04152202  0.51922216     0.14500
C529        C  0.37178537  0.86130860  0.40170996    -0.05500
C530        C  0.39012015  0.86467881  0.39790542    -0.05500
C531        C  0.39958428  0.87338892  0.42277644    -0.23600
C532        C  0.39074117  0.87908996  0.45148423     0.18600
C533        C  0.37230342  0.87559123  0.45546850     0.15800
C534        C  0.36301949  0.86656826  0.43075674    -0.18700
C535        C  0.36331984  0.88154112  0.48376015    -0.20500
C536        C  0.37243897  0.89121138  0.50768760    -0.13000
C537        C  0.39070256  0.89493162  0.50385868     0.03600
C538        C  0.39987900  0.88859836  0.47591270    -0.25200
H539        H  0.39708542  0.86070465  0.37562287     0.08700
H540        H  0.41370284  0.87596076  0.41929999     0.12300
H541        H  0.34883047  0.86413678  0.43371615     0.12200
H542        H  0.34919356  0.87896890  0.48712519     0.12000
H543        H  0.36355742  0.89390482  0.02944063     0.12500
H544        H  0.41397471  0.89145828  0.47276943     0.14500
C545        C  0.38926583  0.90573891  0.15667424    -0.05500
C546        C  0.37566323  0.91510159  0.17318501    -0.05500
C547        C  0.36590683  0.90697522  0.19863596    -0.23600
C548        C  0.36949215  0.88928796  0.20780352     0.18600
C549        C  0.38328876  0.87984248  0.19151399     0.15800
C550        C  0.39317141  0.88816741  0.16633728    -0.18700
C551        C  0.38686428  0.86215063  0.20042745    -0.20500
C552        C  0.37702779  0.85392841  0.22552715    -0.13000
C553        C  0.36344021  0.86323075  0.24224365     0.03600
C554        C  0.35960898  0.88090157  0.23303200    -0.25200
H555        H  0.37241080  0.92865533  0.16610860     0.08700
H556        H  0.35542057  0.91445629  0.21088473     0.12300
H557        H  0.40358811  0.88078465  0.15365881     0.12200
H558        H  0.39735719  0.85469766  0.18813549     0.12000
H559        H  0.38028658  0.84033881  0.23226683     0.12500
H560        H  0.34922322  0.88822758  0.24591029     0.14500
C561        C  0.15188215  0.86978928  0.34767964    -0.05500
C562        C  0.15745440  0.88718881  0.34001925    -0.05500
C563        C  0.14986044  0.89642276  0.31366113    -0.23600
C564        C  0.13661792  0.88835809  0.29448693     0.18600
C565        C  0.13104907  0.87076545  0.30176451     0.15800
C566        C  0.13873560  0.86157757  0.32832037    -0.18700
C567        C  0.11774889  0.86275722  0.28257795    -0.20500
C568        C  0.10985078  0.87220415  0.25670424    -0.13000
C569        C  0.11521588  0.88973192  0.24954937     0.03600
C570        C  0.12871484  0.89768717  0.26839645    -0.25200
H571        H  0.16758121  0.89374807  0.35465264     0.08700
H572        H  0.15426425  0.90990163  0.30840221     0.12300
H573        H  0.13440466  0.84813189  0.33404132     0.12200
H574        H  0.11333124  0.84928506  0.28779589     0.12000
H575        H  0.09941891  0.86586079  0.24248495     0.12500
H576        H  0.13285825  0.91125696  0.26316039     0.14500
C577        C  0.11231447  0.90242046  0.09262964    -0.05500
C578        C  0.10151527  0.89527899  0.06765300    -0.05500
C579        C  0.10914098  0.88698669  0.04015008    -0.23600
C580        C  0.12773892  0.88548740  0.03724586     0.18600
C581        C  0.13880195  0.89288753  0.06185779     0.15800
C582        C  0.13101987  0.90147097  0.08926907    -0.18700
C583        C  0.15741924  0.89113505  0.05899787    -0.20500
C584        C  0.16269520  0.87900705  0.53178378    -0.13000
C585        C  0.15403600  0.87421665  0.00810513     0.03600
C586        C  0.13541131  0.87634908  0.01049677    -0.25200
H587        H  0.08710055  0.89584022  0.06965026     0.08700
H588        H  0.10046850  0.88140897  0.02148768     0.12300
H589        H  0.13948745  0.90684665  0.10847686     0.12200
H590        H  0.16613491  0.89673393  0.07757643     0.12000
H591        H  0.17708001  0.87897182  0.52891920     0.12500
H592        H  0.12682918  0.87057159  0.99188680     0.14500
C593        C  0.28864826  0.84965231  0.35075543    -0.05500
C594        C  0.28309832  0.86573925  0.36523478    -0.05500
C595        C  0.26597631  0.86733069  0.37889581    -0.23600
C596        C  0.25418506  0.85279948  0.37861584     0.18600
C597        C  0.25963243  0.83660268  0.36387360     0.15800
C598        C  0.27675321  0.83517226  0.34993173    -0.18700
C599        C  0.24793037  0.82203306  0.36361331    -0.20500
C600        C  0.23091655  0.82351606  0.37758360    -0.13000
C601        C  0.22533517  0.83953405  0.39233715     0.03600
C602        C  0.23708452  0.85413829  0.39288527    -0.25200
H603        H  0.29209321  0.87701339  0.36640203     0.08700
H604        H  0.26203790  0.87986553  0.39006579     0.12300
H605        H  0.28096907  0.82262100  0.33918283     0.12200
H606        H  0.25190978  0.80950637  0.35252192     0.12000
H607        H  0.22210079  0.81209123  0.37687366     0.12500
H608        H  0.23284062  0.86659620  0.40402079     0.14500
C609        C  0.40580045  0.47237433  0.45616186    -0.05500
C610        C  0.40539719  0.48689264  0.43421019    -0.05500
C611        C  0.40522781  0.50439760  0.44616454    -0.23600
C612        C  0.40529215  0.50767092  0.48030346     0.18600
C613        C  0.40468976  0.49287598  0.00261529     0.15800
C614        C  0.40553264  0.47561943  0.49037340    -0.18700
C615        C  0.40468993  0.49639933  0.03659871    -0.20500
C616        C  0.40491741  0.51394172  0.04813734    -0.13000
C617        C  0.40535778  0.52834929  0.02592954     0.03600
C618        C  0.40494076  0.52486447  0.99173321    -0.25200
H619        H  0.40556199  0.48471447  0.40778519     0.08700
H620        H  0.40519092  0.51537033  0.42871393     0.12300
H621        H  0.40557760  0.46426295  0.00862075     0.12200
H622        H  0.40468801  0.48552989  0.05434447     0.12000
H623        H  0.40512816  0.51624310  0.07450680     0.12500
H624        H  0.40587897  0.53634599  0.47553361     0.14500
C625        C  0.34456132  0.78565034  0.32890423    -0.05500
C626        C  0.35148053  0.77660464  0.35644745    -0.05500
C627        C  0.35161560  0.75796513  0.35742445    -0.23600
C628        C  0.34483707  0.74811738  0.33086159     0.18600
C629        C  0.33793701  0.75716008  0.30302550     0.15800
C630        C  0.33787234  0.77582340  0.30222542    -0.18700
C631        C  0.33102895  0.74739511  0.27654674    -0.20500
C632        C  0.33072480  0.72880347  0.27776207    -0.13000
C633        C  0.33744308  0.71965671  0.30533812     0.03600
C634        C  0.34463180  0.72940723  0.33176153    -0.25200
H635        H  0.35663973  0.78393163  0.37730815     0.08700
H636        H  0.35691599  0.75126185  0.37900894     0.12300
H637        H  0.33248321  0.78269355  0.28088275     0.12200
H638        H  0.32569345  0.75413828  0.25504182     0.12000
H639        H  0.32509954  0.72155816  0.25715756     0.12500
H640        H  0.34974098  0.72246152  0.35326344     0.14500
C641        C  0.38116932  0.59946066  0.14257941    -0.05500
C642        C  0.36428355  0.59286677  0.15175066    -0.05500
C643        C  0.35432621  0.60115513  0.17684017    -0.23600
C644        C  0.36098588  0.61633882  0.19291318     0.18600
C645        C  0.37796665  0.62300256  0.18378557     0.15800
C646        C  0.38797369  0.61445148  0.15904824    -0.18700
C647        C  0.38463929  0.63826852  0.19927287    -0.20500
C648        C  0.37471267  0.64680742  0.22382382    -0.13000
C649        C  0.35790584  0.64028569  0.23360243     0.03600
C650        C  0.35102855  0.62501734  0.21784527    -0.25200
H651        H  0.35872061  0.58138719  0.13934304     0.08700
H652        H  0.34135128  0.59581637  0.18339374     0.12300
H653        H  0.40090716  0.61977427  0.15203517     0.12200
H654        H  0.39758225  0.64360951  0.19243575     0.12000
H655        H  0.38032869  0.65852987  0.23544656     0.12500
H656        H  0.33810084  0.61984270  0.22512106     0.14500
C657        C  0.38540961  0.61312478  0.49223346    -0.05500
C658        C  0.39064033  0.63100881  0.48839107    -0.05500
C659        C  0.38383962  0.64135493  0.46247364    -0.23600
C660        C  0.37184068  0.63390037  0.43981320     0.18600
C661        C  0.36635040  0.61599246  0.44390078     0.15800
C662        C  0.37303577  0.60581467  0.47014056    -0.18700
C663        C  0.35447598  0.60839929  0.42134589    -0.20500
C664        C  0.34819591  0.61835600  0.39471077    -0.13000
C665        C  0.35359495  0.63611930  0.39013503     0.03600
C666        C  0.36537833  0.64390473  0.41294876    -0.25200
H667        H  0.40013020  0.63693154  0.50521337     0.08700
H668        H  0.38816186  0.65505789  0.45986857     0.12300
H669        H  0.36892698  0.59201838  0.47284556     0.12200
H670        H  0.35012882  0.59469036  0.42417108     0.12000
H671        H  0.33904677  0.61210538  0.37761290     0.12500
H672        H  0.36954790  0.65762493  0.40974390     0.14500
C673        C  0.15842104  0.72392082  0.43017740    -0.05500
C674        C  0.14602764  0.73234384  0.40935657    -0.05500
C675        C  0.14437675  0.75091897  0.40923139    -0.23600
C676        C  0.15520351  0.76134189  0.42975000     0.18600
C677        C  0.16740411  0.75291326  0.45129209     0.15800
C678        C  0.16887519  0.73429698  0.45144317    -0.18700
C679        C  0.17829468  0.76325632  0.47173410    -0.20500
C680        C  0.17763255  0.78181663  0.46998374    -0.13000
C681        C  0.16607247  0.79034792  0.44778294     0.03600
C682        C  0.15452835  0.78003248  0.42828488    -0.25200
H683        H  0.13775058  0.72458229  0.39292856     0.08700
H684        H  0.13490126  0.75713367  0.39265966     0.12300
H685        H  0.17846273  0.72791224  0.46763773     0.12200
H686        H  0.18768800  0.75698734  0.48844893     0.12000
H687        H  0.18668508  0.78949508  0.48514019     0.12500
H688        H  0.14556644  0.78650561  0.41106100     0.14500
C689        C  0.27830041  0.66635554  0.33842790    -0.05500
C690        C  0.26484951  0.66747231  0.31445217    -0.05500
C691        C  0.24687505  0.66877021  0.32383786    -0.23600
C692        C  0.24203289  0.66877869  0.35738694     0.18600
C693        C  0.25547077  0.66761861  0.38168391     0.15800
C694        C  0.27348093  0.66652943  0.37206758    -0.18700
C695        C  0.25065988  0.66738540  0.41521281    -0.20500
C696        C  0.23267765  0.66795936  0.42462447    -0.13000
C697        C  0.21918383  0.66899194  0.40072891     0.03600
C698        C  0.22399294  0.66965528  0.36707009    -0.25200
H699        H  0.26824201  0.66746548  0.28842323     0.08700
H700        H  0.23675974  0.66964269  0.30486501     0.12300
H701        H  0.28373968  0.66567992  0.39081310     0.12200
H702        H  0.26079868  0.66653881  0.43416501     0.12000
H703        H  0.22931398  0.66754999  0.45065816     0.12500
H704        H  0.21369453  0.67046392  0.34839515     0.14500
C705        C  0.33570186  0.28144731  0.18023279    -0.05500
C706        C  0.34515796  0.27279229  0.15486533    -0.05500
C707        C  0.34632539  0.25425451  0.15409155    -0.23600
C708        C  0.33795423  0.24400021  0.17858296     0.18600
C709        C  0.32868553  0.25251706  0.20464370     0.15800
C710        C  0.32770881  0.27123559  0.20543714    -0.18700
C711        C  0.32022116  0.24212150  0.22895305    -0.20500
C712        C  0.32051477  0.22349646  0.22689612    -0.13000
C713        C  0.32940643  0.21498661  0.20068265     0.03600
C714        C  0.33835211  0.22535464  0.17691414    -0.25200
H715        H  0.35151914  0.28037381  0.13528890     0.08700
H716        H  0.35352054  0.24793347  0.13401555     0.12300
H717        H  0.32041221  0.27779862  0.22512591     0.12200
H718        H  0.31309117  0.24838601  0.24916613     0.12000
H719        H  0.31354618  0.21575049  0.24552830     0.12500
H720        H  0.34523426  0.21892828  0.15655159     0.14500
C721        C  0.38151605  0.39535511  0.00311918    -0.05500
C722        C  0.36362518  0.40001013  0.00901000    -0.05500
C723        C  0.35431837  0.39266226  0.03565721    -0.23600
C724        C  0.36273829  0.38046730  0.05672067     0.18600
C725        C  0.38070512  0.37556928  0.05090828     0.15800
C726        C  0.39001641  0.38313460  0.02422528    -0.18700
C727        C  0.38897814  0.36312743  0.07178808    -0.20500
C728        C  0.37947661  0.35553476  0.09808794    -0.13000
C729        C  0.36167569  0.36048140  0.10408189     0.03600
C730        C  0.35341863  0.37300294  0.08335951    -0.25200
H731        H  0.35684766  0.40944361  0.99310854     0.08700
H732        H  0.34053268  0.39650014  0.03976516     0.12300
H733        H  0.40309746  0.37801250  0.51089381     0.12200
H734        H  0.40272888  0.35917868  0.06763122     0.12000
H735        H  0.38602421  0.34582720  0.11372460     0.12500
H736        H  0.33959826  0.37672575  0.08760001     0.14500
C737        C  0.34920118  0.36588459  0.25499677    -0.05500
C738        C  0.34011732  0.38115501  0.26609613    -0.05500
C739        C  0.34769446  0.39215742  0.29018509    -0.23600
C740        C  0.36448710  0.38806087  0.30351746     0.18600
C741        C  0.37363501  0.37268521  0.29241714     0.15800
C742        C  0.36594467  0.36173390  0.26840036    -0.18700
C743        C  0.39035476  0.36843148  0.30554599    -0.20500
C744        C  0.39782033  0.37903864  0.33005566    -0.13000
C745        C  0.38881823  0.39420335  0.34178160     0.03600
C746        C  0.37222119  0.39885606  0.32802032    -0.25200
H747        H  0.32724784  0.38468343  0.25591330     0.08700
H748        H  0.34044710  0.40386652  0.29832392     0.12300
H749        H  0.37312816  0.35004737  0.25987702     0.12200
H750        H  0.39757088  0.35673713  0.29717712     0.12000
H751        H  0.41063897  0.37522058  0.34018762     0.12500
H752        H  0.36513956  0.41048337  0.33701773     0.14500
C753        C  0.15070931  0.21893053  0.05559605    -0.05500
C754        C  0.13621165  0.22644043  0.07280596    -0.05500
C755        C  0.13455872  0.24490128  0.07580747    -0.23600
C756        C  0.14738481  0.25618149  0.06162101     0.18600
C757        C  0.16159046  0.24879442  0.04300618     0.15800
C758        C  0.16315471  0.23021190  0.04007504    -0.18700
C759        C  0.17432448  0.26010658  0.02857969    -0.20500
C760        C  0.17337586  0.27849882  0.03355338    -0.13000
C761        C  0.15976323  0.28587204  0.05320625     0.03600
C762        C  0.14656761  0.27466587  0.06663149    -0.25200
H763        H  0.12644403  0.21800991  0.08497773     0.08700
H764        H  0.12352563  0.25032353  0.08996000     0.12300
H765        H  0.17439569  0.22454520  0.02678199     0.12200
H766        H  0.18524494  0.25470120  0.01407778     0.12000
H767        H  0.18366464  0.28691261  0.02289267     0.12500
H768        H  0.13595132  0.28026005  0.08163767     0.14500
C769        C  0.27958597  0.34125342  0.13968059    -0.05500
C770        C  0.27740555  0.34583175  0.10624408    -0.05500
C771        C  0.26039891  0.34708573  0.09247787    -0.23600
C772        C  0.24525557  0.34356799  0.11181207     0.18600
C773        C  0.24729535  0.33920320  0.14563029     0.15800
C774        C  0.26443991  0.33827764  0.15944997    -0.18700
C775        C  0.23216868  0.33543230  0.16484663    -0.20500
C776        C  0.21524028  0.33556376  0.15056147    -0.13000
C777        C  0.21308791  0.33970983  0.11692304     0.03600
C778        C  0.22814917  0.34397361  0.09775303    -0.25200
H779        H  0.28890664  0.34834841  0.09060455     0.08700
H780        H  0.25911298  0.35050317  0.06656232     0.12300
H781        H  0.26600951  0.33475529  0.18527315     0.12200
H782        H  0.23344714  0.33210245  0.19079635     0.12000
H783        H  0.20378619  0.33238441  0.16589288     0.12500
H784        H  0.22660346  0.34718037  0.07177892     0.14500
C785        C  0.13687012  0.64407224  0.35473319    -0.05500
C786        C  0.11899310  0.64867392  0.34870361    -0.05500
C787        C  0.10969653  0.64093640  0.32255168    -0.23600
C788        C  0.11817427  0.62855782  0.30186578     0.18600
C789        C  0.13620088  0.62392380  0.30767090     0.15800
C790        C  0.14538635  0.63162631  0.33414439    -0.18700
C791        C  0.14474922  0.61167339  0.28687278    -0.20500
C792        C  0.13546572  0.60387538  0.26082364    -0.13000
C793        C  0.11747104  0.60816680  0.25512789     0.03600
C794        C  0.10892552  0.62065723  0.27561215    -0.25200
H795        H  0.11219683  0.65828875  0.36421616     0.08700
H796        H  0.09589538  0.64466900  0.31845674     0.12300
H797        H  0.15923127  0.62809300  0.33845922     0.12200
H798        H  0.15858313  0.60802878  0.29087969     0.12000
H799        H  0.14232764  0.59429856  0.24534564     0.12500
H800        H  0.09504443  0.62406930  0.27138412     0.14500
C801        C  0.11650474  0.60375583  0.10216643    -0.05500
C802        C  0.13015642  0.59445589  0.08560564    -0.05500
C803        C  0.13990646  0.60262570  0.06009389    -0.23600
C804        C  0.13621992  0.62028129  0.05071131     0.18600
C805        C  0.12266028  0.62979208  0.06752434     0.15800
C806        C  0.11290953  0.62149068  0.09300381    -0.18700
C807        C  0.11898915  0.64745381  0.05848569    -0.20500
C808        C  0.12840972  0.65555361  0.03266110    -0.13000
C809        C  0.14172391  0.64620778  0.01527455     0.03600
C810        C  0.14568952  0.62854911  0.02466414    -0.25200
H811        H  0.13331329  0.58085093  0.09240929     0.08700
H812        H  0.15029813  0.59511890  0.04766201     0.12300
H813        H  0.10253928  0.62888121  0.10576730     0.12200
H814        H  0.10869671  0.65496733  0.07118504     0.12000
H815        H  0.13499286  0.67074299  0.53250321     0.12500
H816        H  0.15591827  0.62119070  0.01146580     0.14500
C817        C  0.13630944  0.36177390  0.49968103    -0.05500
C818        C  0.11730729  0.36041614  0.99769616    -0.05500
C819        C  0.11013020  0.36251160  0.46420978    -0.23600
C820        C  0.11638455  0.37812766  0.44899278     0.18600
C821        C  0.13274964  0.38566248  0.45925373     0.15800
C822        C  0.14262102  0.37742215  0.48447689    -0.18700
C823        C  0.13899617  0.40127755  0.44400075    -0.20500
C824        C  0.12925919  0.40923538  0.41854576    -0.13000
C825        C  0.11304966  0.40180450  0.40804343     0.03600
C826        C  0.10661714  0.38626651  0.42354974    -0.25200
H827        H  0.11070539  0.35036029  0.01259980     0.08700
H828        H  0.09764022  0.35654011  0.45666130     0.12300
H829        H  0.15514701  0.38324228  0.49239403     0.12200
H830        H  0.15149485  0.40726394  0.45158103     0.12000
H831        H  0.13447549  0.42118748  0.40691934     0.12500
H832        H  0.09416932  0.38037857  0.41554623     0.14500
C833        C  0.10727437  0.39068285  0.25532845    -0.05500
C834        C  0.10158345  0.37300738  0.25095595    -0.05500
C835        C  0.10871082  0.36263753  0.22544234    -0.23600
C836        C  0.12141935  0.36991877  0.20371246     0.18600
C837        C  0.12709858  0.38774093  0.20799899     0.15800
C838        C  0.12009545  0.39792099  0.23384349    -0.18700
C839        C  0.13958315  0.39519673  0.18619006    -0.20500
C840        C  0.14633586  0.38514261  0.16012644    -0.13000
C841        C  0.14079752  0.36743957  0.15553272     0.03600
C842        C  0.12841541  0.35981253  0.17757295    -0.25200
H843        H  0.09168867  0.36720473  0.26732821     0.08700
H844        H  0.10418534  0.34901687  0.22253673     0.12300
H845        H  0.12444361  0.41161246  0.23691438     0.12200
H846        H  0.14404543  0.40884518  0.18916474     0.12000
H847        H  0.15592777  0.39125546  0.14350906     0.12500
H848        H  0.12410232  0.34614461  0.17419411     0.14500
C849        C  0.09122169  0.47478746  0.29364319    -0.05500
C850        C  0.08953043  0.48944582  0.31493528    -0.05500
C851        C  0.08965014  0.50685449  0.30235376    -0.23600
C852        C  0.09160717  0.50987788  0.26828522     0.18600
C853        C  0.09392364  0.49521387  0.24684618     0.15800
C854        C  0.09369380  0.47780589  0.25963669    -0.18700
C855        C  0.09611164  0.49817936  0.21286122    -0.20500
C856        C  0.09564630  0.51549080  0.20006542    -0.13000
C857        C  0.09291666  0.53015357  0.22096333     0.03600
C858        C  0.09105735  0.52725718  0.25519976    -0.25200
H859        H  0.08765200  0.48742972  0.34121018     0.08700
H860        H  0.08796569  0.51793190  0.31920384     0.12300
H861        H  0.09518117  0.46658475  0.24301867     0.12200
H862        H  0.09799729  0.48708242  0.19610347     0.12000
H863        H  0.09718274  0.51739105  0.17367200     0.12500
H864        H  0.08906994  0.53848331  0.27160096     0.14500
C865        C  0.71530437  0.83784456  0.34822756    -0.05500
C866        C  0.72957915  0.84035826  0.32618239    -0.05500
C867        C  0.74705484  0.84139028  0.33788589    -0.23600
C868        C  0.75049876  0.83987041  0.37179829     0.18600
C869        C  0.73619903  0.83785157  0.39433277     0.15800
C870        C  0.71867907  0.83688975  0.38239079    -0.18700
C871        C  0.73973293  0.83642888  0.42829717    -0.20500
C872        C  0.75736576  0.83640447  0.43968472    -0.13000
C873        C  0.77163861  0.83777586  0.41722882     0.03600
C874        C  0.76805583  0.83988511  0.38340812    -0.25200
H875        H  0.72725665  0.84121302  0.29984035     0.08700
H876        H  0.75791755  0.84304490  0.32034748     0.12300
H877        H  0.70772676  0.83507621  0.39963506     0.12200
H878        H  0.72891369  0.83499998  0.44591675     0.12000
H879        H  0.75984908  0.83490983  0.46586070     0.12500
H880        H  0.77899905  0.84119693  0.36589454     0.14500
C881        C  0.53492996  0.91490412  0.06888153    -0.05500
C882        C  0.52607277  0.90295281  0.04790728    -0.05500
C883        C  0.50747640  0.90205109  0.04755167    -0.23600
C884        C  0.49733010  0.91321216  0.06796905     0.18600
C885        C  0.50602052  0.92521419  0.08945674     0.15800
C886        C  0.52480419  0.92591258  0.08994548    -0.18700
C887        C  0.49573519  0.93652671  0.10951510    -0.20500
C888        C  0.47707193  0.93625949  0.10764294    -0.13000
C889        C  0.46839378  0.92453065  0.08599055     0.03600
C890        C  0.47863147  0.91282833  0.06662927    -0.25200
H891        H  0.53356011  0.89432187  0.03148030     0.08700
H892        H  0.50102149  0.89278872  0.03092010     0.12300
H893        H  0.53149747  0.93522190  0.10615705     0.12200
H894        H  0.50212409  0.94580112  0.12620280     0.12000
H895        H  0.46943152  0.94535838  0.12286039     0.12500
H896        H  0.47206662  0.90375148  0.04977348     0.14500
C897        C  0.63770744  0.85394521  0.39596889    -0.05500
C898        C  0.62240481  0.84606397  0.40985040    -0.05500
C899        C  0.61462609  0.85312020  0.43841617    -0.23600
C900        C  0.62212428  0.86809027  0.45372529     0.18600
C901        C  0.63789954  0.87571292  0.44056894     0.15800
C902        C  0.64552826  0.86865828  0.41172063    -0.18700
C903        C  0.64562333  0.89044723  0.45619528    -0.20500
C904        C  0.63740293  0.89804460  0.48378762    -0.13000
C905        C  0.62128318  0.89110455  0.49615638     0.03600
C906        C  0.61390067  0.87584347  0.48143965    -0.25200
H907        H  0.61634143  0.83453359  0.39840968     0.08700
H908        H  0.60264077  0.84697616  0.44834265     0.12300
H909        H  0.65755648  0.87460825  0.40157300     0.12200
H910        H  0.65781525  0.89634891  0.44663674     0.12000
H911        H  0.64335865  0.90976408  0.49477562     0.12500
H912        H  0.60059430  0.86887643  0.98842470     0.14500
C913        C  0.63840230  0.85488063  0.23515542    -0.05500
C914        C  0.62470905  0.84567234  0.21880158    -0.05500
C915        C  0.61543534  0.85364350  0.19275495    -0.23600
C916        C  0.61955390  0.87107444  0.18272548     0.18600
C917        C  0.63330499  0.88049640  0.19893694     0.15800
C918        C  0.64271803  0.87230453  0.22490615    -0.18700
C919        C  0.63734051  0.89796904  0.18894256    -0.20500
C920        C  0.62796042  0.90597697  0.16301450    -0.13000
C921        C  0.61434704  0.89669047  0.14661007     0.03600
C922        C  0.61017425  0.87921545  0.15673072    -0.25200
H923        H  0.62114529  0.83224336  0.22619392     0.08700
H924        H  0.60496743  0.84620422  0.18058924     0.12300
H925        H  0.65319677  0.87957832  0.23745006     0.12200
H926        H  0.64781805  0.90542813  0.20109226     0.12000
H927        H  0.63147340  0.91940728  0.15559112     0.12500
H928        H  0.59976816  0.87187658  0.14417780     0.14500
C929        C  0.47055070  0.09075060  0.43442559    -0.05500
C930        C  0.47955865  0.10111361  0.45797439    -0.05500
C931        C  0.49823760  0.10181760  0.45830116    -0.23600
C932        C  0.50825413  0.09208756  0.43516650     0.18600
C933        C  0.49931047  0.08185292  0.41108801     0.15800
C934        C  0.48055388  0.08130139  0.41080627    -0.18700
C935        C  0.50928578  0.07208234  0.38800272    -0.20500
C936        C  0.52794073  0.07211635  0.38914180    -0.13000
C937        C  0.53699998  0.08193963  0.41331928     0.03600
C938        C  0.52703675  0.09212761  0.43605748    -0.25200
H939        H  0.47216113  0.10855928  0.47635969     0.08700
H940        H  0.50483175  0.10976842  0.47687873     0.12300
H941        H  0.47375374  0.07328851  0.39248152     0.12200
H942        H  0.50264689  0.06419244  0.36932077     0.12000
H943        H  0.53530497  0.06419565  0.37133519     0.12500
H944        H  0.53386124  0.09980750  0.45476073     0.14500
C945        C  0.59363349  0.96969343  0.02628772    -0.05500
C946        C  0.59479157  0.98439336  0.04756994    -0.05500
C947        C  0.59454169  0.00177213  0.03499271    -0.23600
C948        C  0.59729340  0.00677847  0.50477995     0.18600
C949        C  0.59249383  0.99006655  0.97914123     0.15800
C950        C  0.59276153  0.97264127  0.99197265    -0.18700
C951        C  0.60050980  0.99509666  0.44908914    -0.20500
C952        C  0.59937824  0.01243134  0.43625948    -0.13000
C953        C  0.59701131  0.02709530  0.45736469     0.03600
C954        C  0.59621923  0.02413728  0.49171254    -0.25200
H955        H  0.59555091  0.98245763  0.07404310     0.08700
H956        H  0.59518531  0.01288628  0.05199830     0.12300
H957        H  0.59199323  0.96139202  0.97527583     0.12200
H958        H  0.60210526  0.98401357  0.43222975     0.12000
H959        H  0.60014061  0.01434704  0.40978011     0.12500
H960        H  0.59453171  0.03533928  0.50831771     0.14500
C961        C  0.03427429  0.91130708  0.18492062    -0.05500
C962        C  0.02755283  0.89825204  0.20660155    -0.05500
C963        C  0.00922282  0.89509450  0.20894604    -0.23600
C964        C  0.99724896  0.90496166  0.18968433     0.18600
C965        C  0.00381617  0.91808765  0.16765320     0.15800
C966        C  0.02230603  0.92116712  0.16537311    -0.18700
C967        C  0.99173994  0.92801816  0.14860710    -0.20500
C968        C  0.97333204  0.92520884  0.15185112    -0.13000
C969        C  0.96670700  0.91234030  0.17401324     0.03600
C970        C  0.97879916  0.90210738  0.19254407    -0.25200
H971        H  0.03649012  0.89049017  0.22190720     0.08700
H972        H  0.00440669  0.88500795  0.22599674     0.12300
H973        H  0.02735301  0.93127085  0.14856370     0.12200
H974        H  0.99651279  0.93813093  0.13156718     0.12000
H975        H  0.96426815  0.93329552  0.13740911     0.12500
H976        H  0.97384381  0.89219524  0.20984541     0.14500
C977        C  0.85001392  0.86301732  0.37012209    -0.05500
C978        C  0.84099001  0.87691383  0.35389798    -0.05500
C979        C  0.84859802  0.88523355  0.32631349    -0.23600
C980        C  0.86541037  0.87985526  0.31464866     0.18600
C981        C  0.87473495  0.86611816  0.33121106     0.15800
C982        C  0.86695388  0.85775727  0.35875688    -0.18700
C983        C  0.89163738  0.86088462  0.31978913    -0.20500
C984        C  0.89922130  0.86913019  0.29211211    -0.13000
C985        C  0.88997355  0.88262918  0.27524274     0.03600
C986        C  0.87304063  0.88794484  0.28667455    -0.25200
H987        H  0.82788485  0.88112307  0.36215632     0.08700
H988        H  0.84128964  0.89576474  0.31398855     0.12300
H989        H  0.87401993  0.84706187  0.37117007     0.12200
H990        H  0.89898642  0.85041435  0.33224496     0.12000
H991        H  0.91230802  0.86487356  0.28377755     0.12500
H992        H  0.86586196  0.89845039  0.27397030     0.14500
C993        C  0.88851199  0.88180092  0.11734518    -0.05500
C994        C  0.89385176  0.86423462  0.11050058    -0.05500
C995        C  0.88494951  0.85411835  0.08691931    -0.23600
C996        C  0.87045746  0.86133987  0.06977131     0.18600
C997        C  0.86486699  0.87899396  0.07638232     0.15800
C998        C  0.87401137  0.88918587  0.10004245    -0.18700
C999        C  0.85023505  0.88606951  0.05920907    -0.20500
C1000       C  0.84149454  0.87586369  0.03531047    -0.13000
C1001       C  0.84727055  0.85845100  0.02817222     0.03600
C1002       C  0.86162930  0.85121517  0.04583989    -0.25200
H1003       H  0.90492174  0.85822386  0.12359879     0.08700
H1004       H  0.88938482  0.84059903  0.08216013     0.12300
H1005       H  0.86969811  0.90267299  0.10532694     0.12200
H1006       H  0.84569532  0.89953420  0.06396268     0.12000
H1007       H  0.83035835  0.88426853  0.52051221     0.12500
H1008       H  0.86619585  0.83779567  0.04049292     0.14500
C1009       C  0.96314469  0.07701630  0.30799606    -0.05500
C1010       C  0.97078581  0.08415958  0.27911609    -0.05500
C1011       C  0.98928013  0.08586235  0.27608751    -0.23600
C1012       C  0.00044413  0.08034802  0.30185034     0.18600
C1013       C  0.99287380  0.07325389  0.33112139     0.15800
C1014       C  0.97427024  0.07170209  0.33406533    -0.18700
C1015       C  0.00405416  0.06765043  0.35680411    -0.20500
C1016       C  0.02257347  0.06890013  0.35341298    -0.13000
C1017       C  0.03020721  0.07586157  0.32438982     0.03600
C1018       C  0.01904979  0.08166840  0.29872044    -0.25200
H1019       H  0.96244612  0.08833908  0.25871307     0.08700
H1020       H  0.99484882  0.09133754  0.25350686     0.12300
H1021       H  0.96848712  0.06612604  0.35639736     0.12200
H1022       H  0.99848343  0.06220782  0.37943094     0.12000
H1023       H  0.03094074  0.06444017  0.37356906     0.12500
H1024       H  0.02482764  0.08706835  0.27624386     0.14500
C1025       C  0.90605972  0.01508385  0.30080275    -0.05500
C1026       C  0.91881576  0.00361261  0.31476015    -0.05500
C1027       C  0.92146026  0.98653782  0.30181439    -0.23600
C1028       C  0.91157024  0.98084405  0.27442933     0.18600
C1029       C  0.89842467  0.99217486  0.26083447     0.15800
C1030       C  0.89556010  0.00905286  0.27446441    -0.18700
C1031       C  0.88874257  0.98669430  0.23311618    -0.20500
C1032       C  0.89205193  0.97009933  0.21887142    -0.13000
C1033       C  0.90503000  0.95870505  0.23221003     0.03600
C1034       C  0.91476343  0.96415493  0.26005708    -0.25200
H1035       H  0.92716276  0.00807082  0.33486298     0.08700
H1036       H  0.93157755  0.97802025  0.31254961     0.12300
H1037       H  0.88582628  0.01789567  0.26325050     0.12200
H1038       H  0.87868294  0.99529319  0.22232757     0.12000
H1039       H  0.88437276  0.96612943  0.19749874     0.12500
H1040       H  0.92482142  0.95544350  0.27051147     0.14500
C1041       C  0.64882092  0.12858355  0.09035248    -0.05500
C1042       C  0.65677149  0.11244399  0.08054741    -0.05500
C1043       C  0.64986503  0.10276244  0.05395703    -0.23600
C1044       C  0.63480594  0.10901657  0.03693493     0.18600
C1045       C  0.62665185  0.12513462  0.04698769     0.15800
C1046       C  0.63374715  0.13481417  0.07341248    -0.18700
C1047       C  0.61148352  0.13135711  0.03048952    -0.20500
C1048       C  0.60438142  0.12172583  0.00426187    -0.13000
C1049       C  0.61237821  0.10576874  0.99378970     0.03600
C1050       C  0.62767904  0.09945758  0.01018798    -0.25200
H1051       H  0.66845135  0.10741933  0.09319097     0.08700
H1052       H  0.65628366  0.09044291  0.04672770     0.12300
H1053       H  0.62748394  0.14723013  0.08083862     0.12200
H1054       H  0.60504967  0.14366207  0.03796855     0.12000
H1055       H  0.59880741  0.13269712  0.48652039     0.12500
H1056       H  0.63385228  0.08709466  0.00246454     0.14500
C1057       C  0.64634571  0.13867106  0.24957471    -0.05500
C1058       C  0.63322169  0.14874662  0.26596929    -0.05500
C1059       C  0.62356189  0.14146677  0.29234690    -0.23600
C1060       C  0.62675566  0.12390987  0.30272699     0.18600
C1061       C  0.64019360  0.11375041  0.28693010     0.15800
C1062       C  0.64999510  0.12123504  0.26057827    -0.18700
C1063       C  0.64340188  0.09620600  0.29751560    -0.20500
C1064       C  0.63338665  0.08880728  0.32344689    -0.13000
C1065       C  0.61991181  0.09875718  0.33914705     0.03600
C1066       C  0.61667079  0.11633623  0.32854249    -0.25200
H1067       H  0.63025469  0.16222784  0.25810279     0.08700
H1068       H  0.61340632  0.14949978  0.30433719     0.12300
H1069       H  0.66009710  0.11334949  0.24812389     0.12200
H1070       H  0.65363902  0.08821071  0.28575334     0.12000
H1071       H  0.63618871  0.07526576  0.33125038     0.12500
H1072       H  0.60641404  0.12420813  0.34062019     0.14500
C1073       C  0.88766572  0.09288312  0.22956519    -0.05500
C1074       C  0.88532521  0.08274092  0.20078377    -0.05500
C1075       C  0.87840832  0.09053439  0.17219943    -0.23600
C1076       C  0.87384571  0.10865373  0.17181546     0.18600
C1077       C  0.87640409  0.11903896  0.20052698     0.15800
C1078       C  0.88315524  0.11106071  0.22927881    -0.18700
C1079       C  0.87217126  0.13723142  0.19997224    -0.20500
C1080       C  0.86525822  0.14502719  0.17140380    -0.13000
C1081       C  0.86226092  0.13473844  0.14300352     0.03600
C1082       C  0.86669898  0.11654706  0.14329465    -0.25200
H1083       H  0.88875762  0.06871120  0.20042871     0.08700
H1084       H  0.87662342  0.08237990  0.15038356     0.12300
H1085       H  0.88502712  0.11902287  0.25131013     0.12200
H1086       H  0.87414029  0.14542405  0.22167393     0.12000
H1087       H  0.86196505  0.15907876  0.17171748     0.12500
H1088       H  0.86456148  0.10853846  0.12138962     0.14500
C1089       C  0.88199137  0.09276751  0.39157906    -0.05500
C1090       C  0.86691830  0.08502111  0.40656268    -0.05500
C1091       C  0.85786808  0.09391814  0.43196153    -0.23600
C1092       C  0.86378969  0.11067646  0.44270842     0.18600
C1093       C  0.87885983  0.11857791  0.42745284     0.15800
C1094       C  0.88779965  0.10961091  0.40205375    -0.18700
C1095       C  0.88492713  0.13524311  0.43809925    -0.20500
C1096       C  0.87645070  0.14384063  0.46428599    -0.13000
C1097       C  0.86164457  0.13603072  0.48002647     0.03600
C1098       C  0.85515085  0.11955148  0.46877466    -0.25200
H1099       H  0.86216755  0.07208132  0.39869560     0.08700
H1100       H  0.84633736  0.08765260  0.44333120     0.12300
H1101       H  0.89934690  0.11576883  0.39047738     0.12200
H1102       H  0.89641047  0.14149931  0.42652900     0.12000
H1103       H  0.88159320  0.15657980  0.47243464     0.12500
H1104       H  0.84030582  0.11771711  0.96883967     0.14500
C1105       C  0.78516081  0.15621721  0.08655650    -0.05500
C1106       C  0.77215640  0.15574619  0.06172673    -0.05500
C1107       C  0.75402929  0.15614641  0.06985375    -0.23600
C1108       C  0.74859958  0.15684693  0.10299460     0.18600
C1109       C  0.76154723  0.15701800  0.12827820     0.15800
C1110       C  0.77976745  0.15678864  0.11988415    -0.18700
C1111       C  0.75601363  0.15750190  0.16144509    -0.20500
C1112       C  0.73781048  0.15790151  0.16943496    -0.13000
C1113       C  0.72489630  0.15792834  0.14438115     0.03600
C1114       C  0.73042030  0.15739788  0.11120098    -0.25200
H1115       H  0.77602105  0.15536814  0.03591131     0.08700
H1116       H  0.74425110  0.15597392  0.05019848     0.12300
H1117       H  0.78972551  0.15707977  0.13922731     0.12200
H1118       H  0.76574356  0.15759062  0.18115891     0.12000
H1119       H  0.73383693  0.15828986  0.19515911     0.12500
H1120       H  0.72055320  0.15732963  0.09167105     0.14500
C1121       C  0.66021993  0.70990666  0.33396553    -0.05500
C1122       C  0.65006239  0.71888816  0.35798941    -0.05500
C1123       C  0.64918971  0.73744617  0.35832715    -0.23600
C1124       C  0.65844787  0.74745376  0.33459771     0.18600
C1125       C  0.66904698  0.73868872  0.31063842     0.15800
C1126       C  0.66993308  0.71991621  0.31052767    -0.18700
C1127       C  0.67834996  0.74889478  0.28706424    -0.20500
C1128       C  0.67693364  0.76753621  0.28698736    -0.13000
C1129       C  0.66623054  0.77627478  0.31051620     0.03600
C1130       C  0.65712321  0.76609435  0.33437455    -0.25200
H1131       H  0.64259804  0.71152636  0.37650399     0.08700
H1132       H  0.64110081  0.74397183  0.37699211     0.12300
H1133       H  0.67794517  0.71313637  0.29206484     0.12200
H1134       H  0.68662454  0.74246493  0.26858174     0.12000
H1135       H  0.68421599  0.77511713  0.26855335     0.12500
H1136       H  0.64893774  0.77267992  0.35283828     0.14500
C1137       C  0.83055473  0.78006340  0.44061893    -0.05500
C1138       C  0.84132878  0.77264690  0.41565886    -0.05500
C1139       C  0.84272651  0.75417702  0.41207349    -0.23600
C1140       C  0.83337365  0.74273664  0.43340244     0.18600
C1141       C  0.82250023  0.75001621  0.45863374     0.15800
C1142       C  0.82120110  0.76862853  0.46215228    -0.18700
C1143       C  0.81304637  0.73853525  0.47978111    -0.20500
C1144       C  0.81440323  0.72004495  0.47608631    -0.13000
C1145       C  0.82531046  0.71267851  0.45130961     0.03600
C1146       C  0.83471824  0.72414917  0.42992072    -0.25200
H1147       H  0.84861099  0.78115491  0.39867012     0.08700
H1148       H  0.85108697  0.74884697  0.39254739     0.12300
H1149       H  0.81458392  0.77173277  0.98248797     0.12200
H1150       H  0.80557566  0.74157805  0.00000185     0.12000
H1151       H  0.80719101  0.70915705  0.99312825     0.12500
H1152       H  0.84307223  0.71862674  0.41055483     0.14500
C1153       C  0.77880816  0.65089628  0.39864850    -0.05500
C1154       C  0.77704885  0.65133726  0.36405709    -0.05500
C1155       C  0.76017968  0.65124499  0.34933842    -0.23600
C1156       C  0.74470202  0.65085071  0.36891379     0.18600
C1157       C  0.74634389  0.65037676  0.40372926     0.15800
C1158       C  0.76334929  0.65025306  0.41833955    -0.18700
C1159       C  0.73093322  0.65030021  0.42339904    -0.20500
C1160       C  0.71407573  0.65072542  0.40884353    -0.13000
C1161       C  0.71220197  0.65109610  0.37427818     0.03600
C1162       C  0.72763228  0.65110742  0.35437124    -0.25200
H1163       H  0.78875003  0.65193289  0.34832628     0.08700
H1164       H  0.75924765  0.65167659  0.32263059     0.12300
H1165       H  0.76453477  0.65010842  0.44503776     0.12200
H1166       H  0.73190607  0.65002312  0.45010358     0.12000
H1167       H  0.70242418  0.65075666  0.42478714     0.12500
H1168       H  0.72636541  0.65156110  0.32770087     0.14500
C1169       C  0.53166489  0.40773027  0.42125385    -0.05500
C1170       C  0.52328706  0.39553418  0.44273026    -0.05500
C1171       C  0.50466886  0.39457740  0.44467548    -0.23600
C1172       C  0.49407948  0.40597741  0.42548188     0.18600
C1173       C  0.50238819  0.41805667  0.40335389     0.15800
C1174       C  0.52110789  0.41872437  0.40112824    -0.18700
C1175       C  0.49183806  0.42960829  0.38444901    -0.20500
C1176       C  0.47327342  0.42948848  0.38788230    -0.13000
C1177       C  0.46486279  0.41775501  0.41012661     0.03600
C1178       C  0.47536434  0.40582207  0.42859397    -0.25200
H1179       H  0.53115044  0.38687468  0.45839077     0.08700
H1180       H  0.49857188  0.38519659  0.46169532     0.12300
H1181       H  0.52744869  0.42822068  0.38456896     0.12200
H1182       H  0.49796618  0.43896164  0.36736667     0.12000
H1183       H  0.46547626  0.43878278  0.37333476     0.12500
H1184       H  0.46902959  0.39669886  0.44580401     0.14500
C1185       C  0.52958485  0.57449670  0.09529402    -0.05500
C1186       C  0.51982283  0.56444966  0.11844044    -0.05500
C1187       C  0.50115583  0.56473744  0.11831638    -0.23600
C1188       C  0.49195534  0.57493712  0.09480694     0.18600
C1189       C  0.50167095  0.58541945  0.07190643     0.15800
C1190       C  0.52039962  0.58525315  0.07248993    -0.18700
C1191       C  0.49249776  0.59549371  0.04819509    -0.20500
C1192       C  0.47387236  0.59480624  0.04659992    -0.13000
C1193       C  0.46410076  0.58415140  0.06883380     0.03600
C1194       C  0.47323644  0.57447155  0.09326313    -0.25200
H1195       H  0.52662604  0.55609626  0.13625643     0.08700
H1196       H  0.49391803  0.55666403  0.13612207     0.12300
H1197       H  0.52780025  0.59303773  0.05449020     0.12200
H1198       H  0.49972696  0.60363296  0.03052755     0.12000
H1199       H  0.46711837  0.60246997  0.02770889     0.12500
H1200       H  0.46581290  0.56624516  0.11059722     0.14500
C1201       C  0.61198722  0.59388960  0.50991683    -0.05500
C1202       C  0.62936568  0.58837481  0.50175669    -0.05500
C1203       C  0.63838502  0.59598199  0.47502094    -0.23600
C1204       C  0.63019445  0.60929370  0.45606952     0.18600
C1205       C  0.61278042  0.61512800  0.46425899     0.15800
C1206       C  0.60374569  0.60733063  0.49108477    -0.18700
C1207       C  0.60474532  0.62865045  0.44545980    -0.20500
C1208       C  0.61394266  0.63636766  0.41889871    -0.13000
C1209       C  0.63118370  0.63050277  0.41051600     0.03600
C1210       C  0.63919461  0.61690494  0.42914774    -0.25200
H1211       H  0.63593598  0.57799209  0.51585347     0.08700
H1212       H  0.65175372  0.59141231  0.46910509     0.12300
H1213       H  0.59033334  0.61166128  0.49719866     0.12200
H1214       H  0.59143301  0.63331442  0.45140107     0.12000
H1215       H  0.60757273  0.64688756  0.40487307     0.12500
H1216       H  0.65258571  0.61243861  0.42304519     0.14500
C1217       C  0.63611288  0.63043381  0.25605308    -0.05500
C1218       C  0.62261339  0.63987562  0.23946118    -0.05500
C1219       C  0.61290042  0.63194964  0.21404273    -0.23600
C1220       C  0.61635381  0.61430755  0.20469573     0.18600
C1221       C  0.62971601  0.60448661  0.22129801     0.15800
C1222       C  0.63956364  0.61262241  0.24687398    -0.18700
C1223       C  0.63297688  0.58675380  0.21185279    -0.20500
C1224       C  0.62334674  0.57899090  0.18590994    -0.13000
C1225       C  0.61020924  0.58876939  0.16899542     0.03600
C1226       C  0.60672090  0.60641715  0.17882644    -0.25200
H1227       H  0.61953938  0.65351535  0.24613731     0.08700
H1228       H  0.60266480  0.63965289  0.20166926     0.12300
H1229       H  0.64977308  0.60509334  0.25971780     0.12200
H1230       H  0.64309688  0.57893440  0.22431940     0.12000
H1231       H  0.62630231  0.56539119  0.17885709     0.12500
H1232       H  0.59665730  0.61414812  0.16601309     0.14500
C1233       C  0.58336197  0.51850181  0.04299682    -0.05500
C1234       C  0.58087239  0.50318227  0.06243180    -0.05500
C1235       C  0.57984517  0.48636006  0.04781014    -0.23600
C1236       C  0.58821800  0.48374315  0.51149508     0.18600
C1237       C  0.58734513  0.49917120  0.49151215     0.15800
C1238       C  0.58469228  0.51673967  0.00840172    -0.18700
C1239       C  0.58693718  0.49737921  0.45696049    -0.20500
C1240       C  0.58712282  0.48042987  0.44240907    -0.13000
C1241       C  0.58771808  0.46503970  0.46219699     0.03600
C1242       C  0.58840157  0.46686423  0.49675053    -0.25200
H1243       H  0.57961657  0.50422445  0.08903985     0.08700
H1244       H  0.57793547  0.47475207  0.06342350     0.12300
H1245       H  0.58655889  0.52848015  0.99312520     0.12200
H1246       H  0.58634283  0.50906465  0.44122995     0.12000
H1247       H  0.58664803  0.47935294  0.41577477     0.12500
H1248       H  0.58894458  0.45509396  0.51233343     0.14500
C1249       C  0.96544788  0.40932316  0.31739543    -0.05500
C1250       C  0.97501048  0.39771205  0.29668119    -0.05500
C1251       C  0.99360948  0.39740688  0.29715980    -0.23600
C1252       C  0.00297523  0.40880171  0.31821993     0.18600
C1253       C  0.99354129  0.42014084  0.33999991     0.15800
C1254       C  0.97478352  0.42024377  0.33961119    -0.18700
C1255       C  0.00306962  0.43155089  0.36096485    -0.20500
C1256       C  0.02174903  0.43206096  0.35963549    -0.13000
C1257       C  0.03111869  0.42116001  0.33735292     0.03600
C1258       C  0.02163012  0.40935695  0.31713317    -0.25200
H1259       H  0.96810944  0.38917681  0.27938651     0.08700
H1260       H  0.00066965  0.38859365  0.28043733     0.12300
H1261       H  0.96751021  0.42927422  0.35563098     0.12200
H1262       H  0.99608089  0.44029382  0.37791130     0.12000
H1263       H  0.02883879  0.44118267  0.37557064     0.12500
H1264       H  0.02876018  0.40077391  0.30004338     0.14500
C1265       C  0.03488804  0.58325193  0.16804095    -0.05500
C1266       C  0.02664481  0.57353339  0.14267576    -0.05500
C1267       C  0.00799013  0.57291106  0.14027638    -0.23600
C1268       C  0.99725190  0.58180809  0.16348593     0.18600
C1269       C  0.00546630  0.59174715  0.18886311     0.15800
C1270       C  0.02415786  0.59254634  0.19075357    -0.18700
C1271       C  0.99486636  0.60038917  0.21248532    -0.20500
C1272       C  0.97630662  0.59890697  0.21150011    -0.13000
C1273       C  0.96793588  0.58894934  0.18664906     0.03600
C1274       C  0.97849309  0.58061756  0.16231589    -0.25200
H1275       H  0.03462947  0.56625450  0.12488662     0.08700
H1276       H  0.00197417  0.56521170  0.12065980     0.12300
H1277       H  0.03035266  0.60001913  0.21054950     0.12200
H1278       H  0.00095010  0.60805618  0.23211930     0.12000
H1279       H  0.96847315  0.60547762  0.23044160     0.12500
H1280       H  0.97217242  0.57283944  0.14313028     0.14500
C1281       C  0.89194438  0.61263843  0.26678571    -0.05500
C1282       C  0.88661139  0.63037769  0.26160293    -0.05500
C1283       C  0.87815314  0.63993305  0.28678052    -0.23600
C1284       C  0.87467365  0.63179286  0.31734542     0.18600
C1285       C  0.88013843  0.61398818  0.32285386     0.15800
C1286       C  0.88893338  0.60462462  0.29769826    -0.18700
C1287       C  0.87624223  0.60567207  0.35308046    -0.20500
C1288       C  0.86655635  0.61474431  0.37730878    -0.13000
C1289       C  0.86098440  0.63238147  0.37193374     0.03600
C1290       C  0.86537202  0.64096361  0.34214469    -0.25200
H1291       H  0.88881159  0.63679849  0.23795160     0.08700
H1292       H  0.87400992  0.65354796  0.28212418     0.12300
H1293       H  0.89293322  0.59089770  0.30186572     0.12200
H1294       H  0.88032965  0.59202722  0.35768759     0.12000
H1295       H  0.86333838  0.60795434  0.40019049     0.12500
H1296       H  0.86096630  0.65454512  0.33778290     0.14500
C1297       C  0.85476782  0.63560097  0.01837859    -0.05500
C1298       C  0.86768437  0.64650369  0.03326557    -0.05500
C1299       C  0.87834573  0.64002800  0.05876553    -0.23600
C1300       C  0.87640316  0.62243855  0.06982029     0.18600
C1301       C  0.86347519  0.61126094  0.05514787     0.15800
C1302       C  0.85263368  0.61794709  0.02957189    -0.18700
C1303       C  0.86168186  0.59362158  0.06636071    -0.20500
C1304       C  0.87235264  0.58725604  0.09217118    -0.13000
C1305       C  0.88505430  0.59838171  0.10710534     0.03600
C1306       C  0.88711108  0.61593124  0.09551207    -0.25200
H1307       H  0.87245040  0.66226868  0.52560220     0.08700
H1308       H  0.88816391  0.64877555  0.06975709     0.12300
H1309       H  0.84282155  0.60937810  0.01804918     0.12200
H1310       H  0.85191056  0.58480123  0.05539475     0.12000
H1311       H  0.87051478  0.57368665  0.10073280     0.12500
H1312       H  0.89683368  0.62465528  0.10686905     0.14500
C1313       C  0.90418653  0.53016933  0.21938833    -0.05500
C1314       C  0.88985703  0.52618830  0.24070583    -0.05500
C1315       C  0.88853883  0.50942566  0.25576580    -0.23600
C1316       C  0.90149694  0.49632385  0.24965429     0.18600
C1317       C  0.91564806  0.50005006  0.22742844     0.15800
C1318       C  0.91689770  0.51691006  0.21248171    -0.18700
C1319       C  0.92852206  0.48695967  0.22097244    -0.20500
C1320       C  0.92754679  0.47040180  0.23665924    -0.13000
C1321       C  0.91374554  0.46661982  0.25925665     0.03600
C1322       C  0.90067141  0.47964366  0.26556546    -0.25200
H1323       H  0.87994631  0.53622926  0.24653410     0.08700
H1324       H  0.87755163  0.50681513  0.27259811     0.12300
H1325       H  0.92800395  0.51983871  0.19605081     0.12200
H1326       H  0.93941782  0.48955749  0.20391184     0.12000
H1327       H  0.93771278  0.46055189  0.23122152     0.12500
H1328       H  0.88987604  0.47679492  0.28270769     0.14500
C1329       C  0.66945286  0.28082431  0.18214154    -0.05500
C1330       C  0.68027109  0.27255722  0.20593506    -0.05500
C1331       C  0.68159821  0.25399374  0.20742038    -0.23600
C1332       C  0.67212455  0.24335373  0.18511753     0.18600
C1333       C  0.66091970  0.25149904  0.16146425     0.15800
C1334       C  0.65961610  0.27017856  0.16018153    -0.18700
C1335       C  0.65141936  0.24081367  0.13922790    -0.20500
C1336       C  0.65313897  0.22224309  0.14022364    -0.13000
C1337       C  0.66439978  0.21404235  0.16342549     0.03600
C1338       C  0.67380966  0.22471929  0.18589726    -0.25200
H1339       H  0.68795125  0.28047188  0.22312619     0.08700
H1340       H  0.69020013  0.24796403  0.22578475     0.12300
H1341       H  0.65121039  0.27641403  0.14173867     0.12200
H1342       H  0.64275625  0.24681384  0.12094959     0.12000
H1343       H  0.64575442  0.21429750  0.12267025     0.12500
H1344       H  0.68251997  0.21853416  0.20394749     0.14500
C1345       C  0.64312454  0.35694125  0.25304138    -0.05500
C1346       C  0.62740520  0.34845516  0.26381797    -0.05500
C1347       C  0.61707054  0.35568591  0.28920693    -0.23600
C1348       C  0.62213346  0.37168580  0.30422878     0.18600
C1349       C  0.63787088  0.38046537  0.29366046     0.15800
C1350       C  0.64836134  0.37298239  0.26819318    -0.18700
C1351       C  0.64273952  0.39658514  0.30872637    -0.20500
C1352       C  0.63222235  0.40380074  0.33413782    -0.13000
C1353       C  0.61662144  0.39507568  0.34487886     0.03600
C1354       C  0.61166867  0.37900877  0.32966104    -0.25200
H1355       H  0.62303760  0.33613798  0.25251521     0.08700
H1356       H  0.60504529  0.34879446  0.29696880     0.12300
H1357       H  0.66034937  0.37973739  0.25986161     0.12200
H1358       H  0.65470050  0.40357269  0.30095902     0.12000
H1359       H  0.63634371  0.41618262  0.34551300     0.12500
H1360       H  0.59970459  0.37210449  0.33776025     0.14500
C1361       C  0.64325519  0.36447079  0.10064065    -0.05500
C1362       C  0.64767146  0.38245173  0.09539973    -0.05500
C1363       C  0.64023690  0.39190943  0.06915352    -0.23600
C1364       C  0.62825961  0.38351996  0.04775019     0.18600
C1365       C  0.62349804  0.36550119  0.05310511     0.15800
C1366       C  0.63103482  0.35607989  0.07954332    -0.18700
C1367       C  0.61137734  0.35720262  0.03177915    -0.20500
C1368       C  0.60405650  0.36669326  0.00535328    -0.13000
C1369       C  0.60887913  0.38454125  0.99973566     0.03600
C1370       C  0.62099559  0.39287188  0.02105222    -0.25200
H1371       H  0.65709388  0.38915737  0.11134473     0.08700
H1372       H  0.64396350  0.40572593  0.06543983     0.12300
H1373       H  0.62757849  0.34220541  0.08341005     0.12200
H1374       H  0.60755076  0.34342645  0.03555734     0.12000
H1375       H  0.59481333  0.36017644  0.49020843     0.12500
H1376       H  0.62464508  0.40670241  0.01707845     0.14500
C1377       C  0.84624285  0.21239691  0.04579925    -0.05500
C1378       C  0.86044800  0.22089317  0.06191352    -0.05500
C1379       C  0.86157129  0.23941620  0.06254148    -0.23600
C1380       C  0.84845315  0.24976431  0.04715790     0.18600
C1381       C  0.83454362  0.24139812  0.02949093     0.15800
C1382       C  0.83360073  0.22270135  0.02867957    -0.18700
C1383       C  0.82146613  0.25190260  0.01411266    -0.20500
C1384       C  0.82180362  0.27046843  0.01731936    -0.13000
C1385       C  0.83521936  0.27875325  0.03591100     0.03600
C1386       C  0.84871684  0.26832818  0.05016258    -0.25200
H1387       H  0.87041687  0.21320592  0.07504590     0.08700
H1388       H  0.87239146  0.24564390  0.07594314     0.12300
H1389       H  0.82262426  0.21623654  0.01611499     0.12200
H1390       H  0.81075456  0.24574759  0.00031200     0.12000
H1391       H  0.81133173  0.27830596  0.00597141     0.12500
H1392       H  0.85921567  0.27462413  0.06432986     0.14500
C1393       C  0.85537615  0.35747247  0.47085383    -0.05500
C1394       C  0.87483549  0.34780877  0.96052340    -0.05500
C1395       C  0.87267156  0.35290750  0.42053841    -0.23600
C1396       C  0.87383358  0.37136638  0.41565843     0.18600
C1397       C  0.86552405  0.38304305  0.43840119     0.15800
C1398       C  0.85609810  0.37600750  0.46566671    -0.18700
C1399       C  0.86708801  0.40152853  0.43372700    -0.20500
C1400       C  0.87676712  0.40835431  0.40685214    -0.13000
C1401       C  0.88494112  0.39683361  0.38403672     0.03600
C1402       C  0.88335870  0.37831178  0.38860060    -0.25200
H1403       H  0.88013835  0.33581755  0.97175569     0.08700
H1404       H  0.87896448  0.34376734  0.40338413     0.12300
H1405       H  0.84990603  0.38490972  0.48339346     0.12200
H1406       H  0.86089841  0.41071220  0.45094076     0.12000
H1407       H  0.87776961  0.42266914  0.40380281     0.12500
H1408       H  0.88961490  0.36928434  0.37121002     0.14500
C1409       C  0.86446128  0.35695634  0.12641647    -0.05500
C1410       C  0.88038047  0.34921948  0.13768640    -0.05500
C1411       C  0.88938324  0.35649255  0.16455357    -0.23600
C1412       C  0.88240178  0.37142194  0.18085033     0.18600
C1413       C  0.86635261  0.37927652  0.16964065     0.15800
C1414       C  0.85760707  0.37212459  0.14221542    -0.18700
C1415       C  0.85919911  0.39399654  0.18632964    -0.20500
C1416       C  0.86793460  0.40095323  0.21379729    -0.13000
C1417       C  0.88398723  0.39335776  0.22483280     0.03600
C1418       C  0.89114314  0.37855832  0.20828195    -0.25200
H1419       H  0.88582296  0.33748338  0.12577168     0.08700
H1420       H  0.90165754  0.35031034  0.17284854     0.12300
H1421       H  0.84520542  0.37801518  0.13381447     0.12200
H1422       H  0.84686898  0.40011110  0.17816611     0.12000
H1423       H  0.86222039  0.41239641  0.22621643     0.12500
H1424       H  0.90352355  0.37260781  0.21669635     0.14500
C1425       C  0.78565328  0.33780675  0.09949812    -0.05500
C1426       C  0.78466341  0.33616480  0.13406086    -0.05500
C1427       C  0.76824056  0.33715760  0.15045368    -0.23600
C1428       C  0.75245185  0.33947987  0.13252369     0.18600
C1429       C  0.75334404  0.34128880  0.09772851     0.15800
C1430       C  0.76995173  0.34070480  0.08149520    -0.18700
C1431       C  0.73756094  0.34314542  0.07966300    -0.20500
C1432       C  0.72104462  0.34269854  0.09573081    -0.13000
C1433       C  0.71996551  0.34072468  0.13023849     0.03600
C1434       C  0.73576589  0.33948826  0.14863165    -0.25200
H1435       H  0.79662958  0.33404572  0.14845809     0.08700
H1436       H  0.76786047  0.33574097  0.17711717     0.12300
H1437       H  0.77059401  0.34191883  0.05481998     0.12200
H1438       H  0.73796144  0.34453965  0.05301106     0.12000
H1439       H  0.70903841  0.34376531  0.08104756     0.12500
H1440       H  0.73505117  0.33785140  0.17524138     0.14500
In1441     In  0.83408384  0.33536217  0.55651336     1.36900
C1442       C  0.80202833  0.33763273  0.58525440     0.77300
O1443       O  0.82334854  0.31074010  0.53227485    -0.61100
O1444       O  0.84541081  0.30838779  0.56496749    -0.52100
C1445       C  0.84717682  0.34981614  0.50097999     0.70000
O1446       O  0.83484959  0.35720361  0.51734222    -0.46900
C1447       C  0.85450992  0.35039534  0.60162163     0.74700
O1448       O  0.80431982  0.34084204  0.55483050    -0.58800
O1449       O  0.85625244  0.33428793  0.59335020    -0.48900
O1450       O  0.81603873  0.33338172  0.60036469    -0.55200
C1451       C  0.83455549  0.30060691  0.54611507     0.84800
O1452       O  0.85231090  0.33516717  0.51270998    -0.57100
O1453       O  0.84286311  0.35893339  0.58564582    -0.60400
In1454     In  0.66838645  0.33653369  0.67393525     1.36900
C1455       C  0.70103508  0.34011493  0.64871644     0.77300
O1456       O  0.67749496  0.31196613  0.70069952    -0.61100
O1457       O  0.65923020  0.30889648  0.66120737    -0.52100
C1458       C  0.65069349  0.35062424  0.72498980     0.70000
O1459       O  0.66698622  0.35406329  0.71954091    -0.46900
C1460       C  0.65182859  0.35508341  0.62812688     0.74700
O1461       O  0.69789661  0.34282713  0.67906467    -0.58800
O1462       O  0.64881216  0.33869395  0.63296340    -0.48900
O1463       O  0.68761836  0.33559246  0.63211744    -0.55200
C1464       C  0.66864202  0.30138707  0.68295395     0.84800
O1465       O  0.64403336  0.33948684  0.70535538    -0.57100
O1466       O  0.66314902  0.36198008  0.64726555    -0.60400
In1467     In  0.91757059  0.58392586  0.68963235     1.36900
C1468       C  0.91816428  0.54981881  0.70887247     0.90100
O1469       O  0.94419001  0.58216799  0.66313872    -0.61100
O1470       O  0.94322373  0.59408340  0.71039933    -0.52100
C1471       C  0.89819135  0.59448088  0.63725625     0.70000
O1472       O  0.89656935  0.57928315  0.65021064    -0.46900
C1473       C  0.90172962  0.60224648  0.73720914     0.74700
O1474       O  0.91452335  0.56244034  0.72816057    -0.58800
O1475       O  0.91580041  0.60759511  0.72308578    -0.48900
O1476       O  0.92138822  0.55464215  0.67957272    -0.55200
C1477       C  0.95274578  0.58939137  0.68629236     0.84800
O1478       O  0.90999728  0.60397251  0.65052736    -0.57100
O1479       O  0.89548703  0.58783833  0.72603953    -0.60400
In1480     In  0.91146724  0.41837613  0.80436721     1.36900
C1481       C  0.91322058  0.45292990  0.79012743     0.77300
O1482       O  0.93710162  0.42288539  0.83193399    -0.61100
O1483       O  0.93749582  0.40585619  0.79021126    -0.52100
C1484       C  0.89280777  0.40416614  0.85423028     0.70000
O1485       O  0.90623256  0.39675121  0.84147733    -0.46900
C1486       C  0.89457963  0.40410449  0.75325417     0.74700
O1487       O  0.91707070  0.44082689  0.76975600    -0.58800
O1488       O  0.90854563  0.39742321  0.76534233    -0.48900
O1489       O  0.90852850  0.44733316  0.81831341    -0.55200
C1490       C  0.94629428  0.41327118  0.81279396     0.84800
O1491       O  0.88913364  0.41916968  0.84200460    -0.57100
O1492       O  0.88917316  0.41798810  0.76761734    -0.60400
In1493     In  0.58431140  0.56793810  0.58395553     1.36900
C1494       C  0.58606856  0.53545282  0.55690605     0.77300
O1495       O  0.55839127  0.56041981  0.60959906    -0.61100
O1496       O  0.55791422  0.58079377  0.57346828    -0.52100
C1497       C  0.60076832  0.58079127  0.63786408     0.70000
O1498       O  0.60154818  0.56456566  0.62978511    -0.46900
C1499       C  0.60229027  0.58512683  0.53723956     0.74700
O1500       O  0.58191107  0.54924787  0.54098912    -0.58800
O1501       O  0.58612115  0.58838238  0.54373959    -0.48900
O1502       O  0.58918033  0.53816808  0.58713283    -0.55200
C1503       C  0.54907508  0.57135133  0.59339326     0.84800
O1504       O  0.59132173  0.59013097  0.61884486    -0.57100
O1505       O  0.60937824  0.57342375  0.55544789    -0.60400
In1506     In  0.58532398  0.41436638  0.92622674     1.36900
C1507       C  0.58430701  0.44748391  0.95011208     0.77300
O1508       O  0.55841423  0.42175036  0.90588653    -0.61100
O1509       O  0.56015507  0.40019912  0.93981061    -0.52100
C1510       C  0.60375334  0.40433280  0.87226440     0.70000
O1511       O  0.60962521  0.41550040  0.89269654    -0.46900
C1512       C  0.60088956  0.39478459  0.97248864     0.74700
O1513       O  0.58713102  0.44438227  0.91983685    -0.58800
O1514       O  0.58797093  0.38910560  0.95566121    -0.48900
O1515       O  0.58218114  0.43371740  0.96753632    -0.55200
C1516       C  0.55023239  0.41005758  0.92258497     0.84800
O1517       O  0.58811241  0.39914490  0.87845122    -0.57100
O1518       O  0.60617590  0.41019335  0.96470728    -0.60400
In1519     In  0.82784875  0.65589053  0.93712761     1.36900
C1520       C  0.79498685  0.65265858  0.91270121     0.77300
O1521       O  0.81723243  0.67987950  0.96376456    -0.61100
O1522       O  0.83746923  0.68349673  0.92729532    -0.52100
C1523       C  0.84445740  0.64269237  0.99013164     0.70000
O1524       O  0.83046184  0.63559023  0.97880213    -0.46900
C1525       C  0.84616745  0.63946389  0.89020015     0.74700
O1526       O  0.79850371  0.64890020  0.94249052    -0.58800
O1527       O  0.84821450  0.65584611  0.89620333    -0.48900
O1528       O  0.80819032  0.65800653  0.89607033    -0.55200
C1529       C  0.82716724  0.69064717  0.94819193     0.84800
O1530       O  0.84934695  0.65650178  0.97491841    -0.57100
O1531       O  0.83521535  0.63156553  0.90891894    -0.60400
In1532     In  0.65889698  0.65446982  0.83646067     1.36900
C1533       C  0.69213776  0.65167005  0.85996360     0.77300
O1534       O  0.66832262  0.68081827  0.81509400    -0.61100
O1535       O  0.64826065  0.68114136  0.85215779    -0.52100
C1536       C  0.64558608  0.63877482  0.78188241     0.70000
O1537       O  0.65699071  0.63125444  0.80000820    -0.46900
C1538       C  0.63898872  0.63876265  0.88259580     0.74700
O1539       O  0.68877770  0.64996309  0.82950591    -0.58800
O1540       O  0.63411943  0.65294318  0.86839595    -0.48900
O1541       O  0.67858389  0.65458400  0.87762971    -0.55200
C1542       C  0.65813310  0.69013569  0.83304200     0.84800
O1543       O  0.64187551  0.65440338  0.79078593    -0.57100
O1544       O  0.65354991  0.63246158  0.87219231    -0.60400
In1545     In  0.83987450  0.16075750  0.56181002     1.36900
C1546       C  0.80540644  0.15945665  0.57843453     0.77300
O1547       O  0.85011752  0.13621122  0.58769349    -0.61100
O1548       O  0.85398029  0.16146615  0.61009531    -0.52100
C1549       C  0.85358057  0.14485581  0.50892569     0.70000
O1550       O  0.86109674  0.15763776  0.52341173    -0.46900
C1551       C  0.84504758  0.19544727  0.55292945     0.74700
O1552       O  0.81072656  0.15874824  0.54888069    -0.58800
O1553       O  0.85526067  0.18588314  0.57012085    -0.48900
O1554       O  0.81774460  0.16049054  0.59932224    -0.55200
C1555       C  0.85625712  0.14484462  0.61184942     0.84800
O1556       O  0.83886553  0.14016942  0.52148275    -0.57100
O1557       O  0.83255896  0.18707966  0.53912622    -0.60400
In1558     In  0.67262665  0.15990802  0.67113483     1.36900
C1559       C  0.70750383  0.15936076  0.65699089     0.77300
O1560       O  0.66923047  0.13483152  0.64153314    -0.61100
O1561       O  0.65343144  0.15720883  0.62874720    -0.52100
C1562       C  0.65660604  0.14585307  0.72476986     0.70000
O1563       O  0.67035911  0.13902092  0.71195830    -0.46900
C1564       C  0.66789405  0.19511940  0.67248206     0.74700
O1565       O  0.70170255  0.15824095  0.68626212    -0.58800
O1566       O  0.65984383  0.18495390  0.65276123    -0.48900
O1567       O  0.69548943  0.16069701  0.63549742    -0.55200
C1568       C  0.65767267  0.14131551  0.62236962     0.84800
O1569       O  0.65150422  0.15989467  0.71065450    -0.57100
O1570       O  0.67843707  0.18721298  0.69189586    -0.60400
In1571     In  0.90887146  0.06939410  0.81054733     1.36900
C1572       C  0.90491586  0.03428818  0.80560682     0.77300
O1573       O  0.89933620  0.09357973  0.78274025    -0.61100
O1574       O  0.90197270  0.06919707  0.75680754    -0.52100
C1575       C  0.89110461  0.08421722  0.86062953     0.70000
O1576       O  0.88474686  0.07144741  0.84426554    -0.46900
C1577       C  0.94408229  0.07375679  0.81102226     0.74700
O1578       O  0.91653713  0.04127930  0.82389247    -0.58800
O1579       O  0.93442297  0.07774405  0.78671002    -0.48900
O1580       O  0.89437154  0.04524930  0.79240872    -0.55200
C1581       C  0.89759543  0.08540028  0.75574854     0.84800
O1582       O  0.90650446  0.08890726  0.85175947    -0.57100
O1583       O  0.93566641  0.06760873  0.83554470    -0.60400
In1584     In  0.91175847  0.90693065  0.69592037     1.36900
C1585       C  0.90567663  0.93941150  0.71948936     0.77300
O1586       O  0.89002793  0.90138302  0.73242489    -0.61100
O1587       O  0.91303752  0.88491179  0.73349631    -0.52100
C1588       C  0.89663512  0.89094098  0.64434433     0.70000
O1589       O  0.89471360  0.90737516  0.64990024    -0.46900
C1590       C  0.94649992  0.90892688  0.68272644     0.74700
O1591       O  0.89701263  0.93309376  0.69549771    -0.58800
O1592       O  0.94006396  0.90006659  0.70638936    -0.48900
O1593       O  0.91770476  0.92928573  0.73048709    -0.55200
C1594       C  0.89813671  0.88870003  0.74622027     0.84800
O1595       O  0.90662502  0.88302682  0.66453698    -0.57100
O1596       O  0.93500676  0.91658410  0.66488685    -0.60400
In1597     In  0.58856571  0.07714711  0.91874974     1.36900
C1598       C  0.58977591  0.04357401  0.94091578     0.77300
O1599       O  0.61156927  0.08224876  0.95325942    -0.61100
O1600       O  0.58925845  0.09966856  0.95461334    -0.52100
C1601       C  0.60688520  0.08984786  0.86647690     0.70000
O1602       O  0.59380428  0.09784706  0.87925521    -0.46900
C1603       C  0.55326056  0.08043823  0.91083472     0.74700
O1604       O  0.59100340  0.04740727  0.91060109    -0.58800
O1605       O  0.56187433  0.08833180  0.93304414    -0.48900
O1606       O  0.58768572  0.05685719  0.95946667    -0.55200
C1607       C  0.60428719  0.09565249  0.96643100     0.84800
O1608       O  0.61019859  0.07497710  0.87963377    -0.57100
O1609       O  0.56279356  0.07100029  0.89195851    -0.60400
In1610     In  0.59329253  0.91973092  0.56635841     1.36900
C1611       C  0.59660597  0.95327641  0.54379897     0.77300
O1612       O  0.61825488  0.91368651  0.53787869    -0.61100
O1613       O  0.59566388  0.89704886  0.53052804    -0.52100
C1614       C  0.60854119  0.90649401  0.62105745     0.70000
O1615       O  0.61091408  0.92234857  0.61156085    -0.46900
C1616       C  0.55760026  0.91714862  0.56860566     0.74700
O1617       O  0.59645226  0.93980331  0.52537394    -0.58800
O1618       O  0.56704067  0.91099602  0.54552472    -0.48900
O1619       O  0.59529623  0.94963187  0.57418230    -0.55200
C1620       C  0.61157426  0.90066803  0.52254394     0.84800
O1621       O  0.59789048  0.89778573  0.60334391    -0.57100
O1622       O  0.56644724  0.92454449  0.59117244    -0.60400
In1623     In  0.82774053  0.83191802  0.94644781     1.36900
C1624       C  0.79401650  0.83311851  0.92728298     0.77300
O1625       O  0.83117650  0.85577843  0.91440370    -0.61100
O1626       O  0.85120167  0.83572701  0.91254608    -0.52100
C1627       C  0.83943256  0.84836470  0.00054078     0.70000
O1628       O  0.82624229  0.85383659  0.98429023    -0.46900
C1629       C  0.83183034  0.79673218  0.94546612     0.74700
O1630       O  0.79830212  0.83205485  0.95735705    -0.58800
O1631       O  0.84001288  0.80709911  0.92609587    -0.48900
O1632       O  0.80698067  0.83324825  0.90739598    -0.55200
C1633       C  0.84559192  0.85046829  0.90163450     0.84800
O1634       O  0.84593186  0.83392340  0.99022220    -0.57100
O1635       O  0.82181504  0.80445104  0.96612036    -0.60400
In1636     In  0.66683449  0.83165706  0.81733307     1.36900
C1637       C  0.70026712  0.83605258  0.83679517     0.77300
O1638       O  0.66142702  0.85310845  0.85397465    -0.61100
O1639       O  0.64346362  0.83129323  0.85271277    -0.52100
C1640       C  0.65320498  0.84744635  0.76337410     0.70000
O1641       O  0.66289081  0.85558295  0.78365939    -0.46900
C1642       C  0.66743441  0.79609148  0.81328815     0.74700
O1643       O  0.69562156  0.83879752  0.80724131    -0.58800
O1644       O  0.65626339  0.80458066  0.83060615    -0.48900
O1645       O  0.68784456  0.83108213  0.85570573    -0.55200
C1646       C  0.64789561  0.84570661  0.86643509     0.84800
O1647       O  0.65092568  0.83123997  0.77029323    -0.57100
O1648       O  0.67809885  0.80588243  0.79716236    -0.60400
In1649     In  0.08699015  0.42317427  0.82617227     1.36900
C1650       C  0.09037633  0.45690135  0.80546946     0.77300
O1651       O  0.10685425  0.41712519  0.78641070    -0.61100
O1652       O  0.08799526  0.39707266  0.79857424    -0.52100
C1653       C  0.10430141  0.41112983  0.87951248     0.70000
O1654       O  0.08844666  0.40697144  0.87293564    -0.46900
C1655       C  0.05159688  0.42213137  0.83215384     0.74700
O1656       O  0.09177048  0.45253715  0.83550938    -0.58800
O1657       O  0.06010236  0.41322085  0.81094276    -0.48900
O1658       O  0.08718596  0.44405265  0.78639013    -0.55200
C1659       C  0.10100638  0.40169590  0.78063258     0.84800
O1660       O  0.11113523  0.42204980  0.85944419    -0.57100
O1661       O  0.06125789  0.43164385  0.85047632    -0.60400
In1662     In  0.09397957  0.58280970  0.68402791     1.36900
C1663       C  0.09700444  0.54985909  0.70922624     0.77300
O1664       O  0.11916629  0.59028013  0.71005244    -0.61100
O1665       O  0.09495082  0.60291458  0.72450857    -0.52100
C1666       C  0.10913221  0.59636901  0.62941543     0.70000
O1667       O  0.11077105  0.58023076  0.63774786    -0.46900
C1668       C  0.05881224  0.58463889  0.67418556     0.74700
O1669       O  0.09199470  0.56305880  0.72599496    -0.58800
O1670       O  0.06673415  0.59362234  0.69586268    -0.48900
O1671       O  0.10072811  0.55355656  0.67956101    -0.55200
C1672       C  0.11150197  0.60115050  0.72919618     0.84800
O1673       O  0.09943979  0.60538913  0.64864644    -0.57100
O1674       O  0.06897357  0.57498565  0.65695906    -0.60400
In1675     In  0.16381045  0.33809523  0.57673571     1.36900
C1676       C  0.19750031  0.33943613  0.59701284     0.77300
O1677       O  0.15908116  0.36316087  0.60467333    -0.61100
O1678       O  0.14636193  0.33964502  0.62227969    -0.52100
C1679       C  0.14644994  0.35323327  0.52669308     0.70000
O1680       O  0.16216666  0.35766736  0.53442501    -0.46900
C1681       C  0.16212299  0.30360715  0.56294115     0.74700
O1682       O  0.19327395  0.34375906  0.56783739    -0.58800
O1683       O  0.15284149  0.31074450  0.58544146    -0.48900
O1684       O  0.18463638  0.33428716  0.61474032    -0.55200
C1685       C  0.14917688  0.35611201  0.62634308     0.84800
O1686       O  0.13991998  0.34093101  0.54420114    -0.57100
O1687       O  0.17208309  0.31424757  0.54721929    -0.60400
In1688     In  0.33324567  0.33675947  0.67257958     1.36900
C1689       C  0.30043942  0.33732623  0.64738898     0.77300
O1690       O  0.33823497  0.35903776  0.63702557    -0.61100
O1691       O  0.35651934  0.33740974  0.63783474    -0.52100
C1692       C  0.34477253  0.35491786  0.72530435     0.70000
O1693       O  0.33157417  0.35981483  0.70837708    -0.46900
C1694       C  0.33706454  0.30195858  0.68188350     0.74700
O1695       O  0.30338464  0.33989956  0.67775107    -0.58800
O1696       O  0.34729951  0.31109740  0.66381015    -0.48900
O1697       O  0.31418820  0.33395964  0.63050927    -0.55200
C1698       C  0.35202380  0.35199208  0.62479772     0.84800
O1699       O  0.35148357  0.34038630  0.71614031    -0.57100
O1700       O  0.32482508  0.31075269  0.69595540    -0.60400
In1701     In  0.16496959  0.67053862  0.93271784     1.36900
C1702       C  0.19938438  0.66886608  0.91513796     0.77300
O1703       O  0.16147098  0.64844789  0.89641987    -0.61100
O1704       O  0.14167091  0.66869503  0.89836486    -0.52100
C1705       C  0.15071719  0.65483127  0.98664114     0.70000
O1706       O  0.16238268  0.64733481  0.96897018    -0.46900
C1707       C  0.16130135  0.70579523  0.93440873     0.74700
O1708       O  0.19432804  0.66785863  0.94492281    -0.58800
O1709       O  0.15307129  0.69598985  0.91435377    -0.48900
O1710       O  0.18687316  0.67081588  0.89480613    -0.55200
C1711       C  0.14718967  0.65464641  0.88468254     0.84800
O1712       O  0.14694497  0.67037113  0.97731947    -0.57100
O1713       O  0.17153878  0.69751009  0.95383937    -0.60400
In1714     In  0.33074572  0.66440552  0.81476367     1.36900
C1715       C  0.29601300  0.66415548  0.83076772     0.77300
O1716       O  0.33436467  0.63939993  0.84350475    -0.61100
O1717       O  0.34866469  0.66242479  0.85869722    -0.52100
C1718       C  0.34762551  0.64796311  0.76456167     0.70000
O1719       O  0.33213412  0.64359759  0.77390800    -0.46900
C1720       C  0.33536216  0.69944793  0.80928864     0.74700
O1721       O  0.30135339  0.66249448  0.80127538    -0.58800
O1722       O  0.34222925  0.69037381  0.83218860    -0.48900
O1723       O  0.30838662  0.66585788  0.85141060    -0.55200
C1724       C  0.34506679  0.64622556  0.86383793     0.84800
O1725       O  0.35398405  0.66105009  0.77999728    -0.57100
O1726       O  0.32658298  0.69045180  0.78861370    -0.60400
In1727     In  0.40929208  0.41893270  0.92654698     1.36900
C1728       C  0.40640045  0.45296212  0.94532518     0.77300
O1729       O  0.38399135  0.41355917  0.95442949    -0.61100
O1730       O  0.40785382  0.40106614  0.97077584    -0.52100
C1731       C  0.39627404  0.40083630  0.87519995     0.70000
O1732       O  0.39159162  0.41664722  0.88159587    -0.46900
C1733       C  0.44429440  0.41779931  0.91663885     0.74700
O1734       O  0.40209346  0.44788349  0.91666563    -0.58800
O1735       O  0.43657962  0.40894664  0.93904883    -0.48900
O1736       O  0.41214517  0.44069636  0.96372714    -0.55200
C1737       C  0.39135261  0.40346931  0.97532194     0.84800
O1738       O  0.40768528  0.39455149  0.89477560    -0.57100
O1739       O  0.43399167  0.42705285  0.89894302    -0.60400
In1740     In  0.40834414  0.58017694  0.56262493     1.36900
C1741       C  0.40637247  0.54680028  0.53986639     0.77300
O1742       O  0.38801712  0.58604808  0.52363990    -0.61100
O1743       O  0.40619061  0.60656419  0.53596046    -0.52100
C1744       C  0.39057937  0.59141637  0.61647433     0.70000
O1745       O  0.38479819  0.57908053  0.59829994    -0.46900
C1746       C  0.44380576  0.58172165  0.56962892     0.74700
O1747       O  0.40309451  0.55073468  0.56962821    -0.58800
O1748       O  0.43548158  0.58920674  0.54642745    -0.48900
O1749       O  0.41060095  0.55992840  0.52201194    -0.55200
C1750       C  0.39332536  0.60171860  0.51813877     0.84800
O1751       O  0.40559865  0.59734319  0.60771977    -0.57100
O1752       O  0.43391872  0.57339765  0.58973503    -0.60400
In1753     In  0.17492872  0.84480428  0.93013480     1.36900
C1754       C  0.20831007  0.84170591  0.90766073     0.77300
O1755       O  0.17720858  0.82121331  0.96430168    -0.61100
O1756       O  0.16149219  0.81875258  0.92101416    -0.52100
C1757       C  0.16180627  0.86381835  0.98048122     0.70000
O1758       O  0.17818404  0.85994691  0.97812939    -0.46900
C1759       C  0.16115060  0.86055453  0.87752027     0.74700
O1760       O  0.20350921  0.85440771  0.92612485    -0.58800
O1761       O  0.15487222  0.84637837  0.88966154    -0.48900
O1762       O  0.19626256  0.83044349  0.90207174    -0.55200
C1763       C  0.16786291  0.81120929  0.94621206     0.84800
O1764       O  0.15239603  0.85790854  0.95727070    -0.57100
O1765       O  0.17438037  0.86683671  0.89271693    -0.60400
In1766     In  0.34207066  0.84024432  0.82514741     1.36900
C1767       C  0.30774442  0.84739012  0.83721848     0.77300
O1768       O  0.33710014  0.81321648  0.80392317    -0.61100
O1769       O  0.35046213  0.81469905  0.84992207    -0.52100
C1770       C  0.35520582  0.85494863  0.76984156     0.70000
O1771       O  0.35931639  0.83962506  0.77995318    -0.46900
C1772       C  0.36190158  0.85204841  0.87458313     0.74700
O1773       O  0.31290126  0.83333416  0.82313632    -0.58800
O1774       O  0.36814021  0.85016172  0.84584297    -0.48900
O1775       O  0.32002880  0.85847545  0.84263338    -0.55200
C1776       C  0.34417527  0.80487084  0.82760718     0.84800
O1777       O  0.34344739  0.86258928  0.78713489    -0.57100
O1778       O  0.34582868  0.84743555  0.87785793    -0.60400
In1779     In  0.41627410  0.92605265  0.57263722     1.36900
C1780       C  0.41206594  0.95925255  0.54952290     0.77300
O1781       O  0.44152988  0.93415627  0.59873870    -0.61100
O1782       O  0.44327696  0.91434270  0.56179894    -0.52100
C1783       C  0.40036316  0.91316880  0.62667940     0.70000
O1784       O  0.39644416  0.92813751  0.61440799    -0.46900
C1785       C  0.39994787  0.90590405  0.52851181     0.74700
O1786       O  0.41370835  0.94595243  0.53090991    -0.58800
O1787       O  0.41660514  0.90845367  0.52803712    -0.48900
O1788       O  0.41222119  0.95549947  0.57986429    -0.55200
C1789       C  0.45144661  0.92378535  0.58249861     0.84800
O1790       O  0.41286121  0.90514991  0.61191874    -0.57100
O1791       O  0.39173198  0.91372019  0.55155937    -0.60400
In1792     In  0.41206512  0.08715777  0.93543668     1.36900
C1793       C  0.40922431  0.05312253  0.95474804     0.77300
O1794       O  0.43844605  0.08094031  0.91055022    -0.61100
O1795       O  0.43851947  0.09629766  0.95438731    -0.52100
C1796       C  0.39717761  0.10159809  0.88143918     0.70000
O1797       O  0.41134989  0.10721010  0.89433359    -0.46900
C1798       C  0.39579859  0.10627094  0.98200531     0.74700
O1799       O  0.40769647  0.05775322  0.92487196    -0.58800
O1800       O  0.41099948  0.11017519  0.97067712    -0.48900
O1801       O  0.41218968  0.06584623  0.97416311    -0.55200
C1802       C  0.44760326  0.08916690  0.93174290     0.84800
O1803       O  0.39070183  0.08806433  0.89562284    -0.57100
O1804       O  0.38864311  0.09290685  0.96862660    -0.60400
In1805     In  0.16006451  0.16297743  0.56778236     1.36900
C1806       C  0.19227854  0.16308565  0.59568629     0.77300
O1807       O  0.16656623  0.18988545  0.54540359    -0.61100
O1808       O  0.14498185  0.18776247  0.57916462    -0.52100
C1809       C  0.14917988  0.14735843  0.51213633     0.70000
O1810       O  0.16535096  0.14767704  0.52070225    -0.46900
C1811       C  0.14392296  0.14291822  0.61285213     0.74700
O1812       O  0.18991922  0.15838285  0.56607988    -0.58800
O1813       O  0.13968645  0.15893658  0.60762959    -0.48900
O1814       O  0.17826267  0.16786994  0.61042667    -0.55200
C1815       C  0.15459005  0.19784011  0.56170423     0.84800
O1816       O  0.13883899  0.15564301  0.53131916    -0.57100
O1817       O  0.15594948  0.13695091  0.59394562    -0.60400
In1818     In  0.32625517  0.16193797  0.68291080     1.36900
C1819       C  0.29348819  0.16088325  0.65721886     0.77300
O1820       O  0.31695012  0.18672615  0.70879222    -0.61100
O1821       O  0.33873702  0.18872013  0.67530646    -0.52100
C1822       C  0.33953464  0.14489394  0.73567374     0.70000
O1823       O  0.32452447  0.14113273  0.72348109    -0.46900
C1824       C  0.34380576  0.14550286  0.63475283     0.74700
O1825       O  0.29619682  0.15857282  0.68773186    -0.58800
O1826       O  0.34672739  0.16160952  0.64197855    -0.48900
O1827       O  0.30739411  0.16382655  0.64053665    -0.55200
C1828       C  0.32821341  0.19668984  0.69467775     0.84800
O1829       O  0.34737121  0.15764543  0.72144767    -0.57100
O1830       O  0.33245166  0.13782355  0.65299113    -0.60400
In1831     In  0.08805948  0.91691169  0.68249994     1.36900
C1832       C  0.09044378  0.95109951  0.70157926     0.77300
O1833       O  0.06005774  0.92127299  0.66418100    -0.61100
O1834       O  0.06368099  0.90677613  0.70871668    -0.52100
C1835       C  0.10206393  0.90445510  0.62579211     0.70000
O1836       O  0.11025037  0.91510234  0.64436056    -0.46900
C1837       C  0.10617471  0.89674053  0.72430955     0.74700
O1838       O  0.09115826  0.93808986  0.72116686    -0.58800
O1839       O  0.09135612  0.89191057  0.71259614    -0.48900
O1840       O  0.08873119  0.94668094  0.67166527    -0.55200
C1841       C  0.05283700  0.91295086  0.68786970     0.84800
O1842       O  0.08646829  0.90089073  0.63542578    -0.57100
O1843       O  0.11185521  0.91147950  0.71356141    -0.60400
In1844     In  0.08488877  0.07821493  0.81740063     1.36900
C1845       C  0.09007760  0.04500799  0.79508822     0.77300
O1846       O  0.06081322  0.06804799  0.84492894    -0.61100
O1847       O  0.05710165  0.08424458  0.80226414    -0.52100
C1848       C  0.09792192  0.09435962  0.87113020     0.70000
O1849       O  0.08241530  0.09683202  0.86026317    -0.46900
C1850       C  0.09812128  0.09960477  0.77123994     0.74700
O1851       O  0.09337505  0.04942641  0.82458923    -0.58800
O1852       O  0.08288135  0.10201987  0.78379643    -0.48900
O1853       O  0.08450190  0.05761442  0.77733245    -0.55200
C1854       C  0.04995985  0.07551465  0.82550786     0.84800
O1855       O  0.10682040  0.08293295  0.85514776    -0.57100
O1856       O  0.10671226  0.08664609  0.78310604    -0.60400
C1857       C  0.09116480  0.96984307  0.71320823    -0.05500
C1858       C  0.08766446  0.98404048  0.69149904    -0.05500
C1859       C  0.08720829  0.00163284  0.70301923    -0.23600
C1860       C  0.09030597  0.00536617  0.73648766     0.18600
C1861       C  0.09425724  0.99123528  0.75840136     0.15800
C1862       C  0.09466386  0.97360130  0.74664757    -0.18700
C1863       C  0.09744476  0.99495799  0.79182704    -0.20500
C1864       C  0.09641318  0.01246532  0.80359540    -0.13000
C1865       C  0.09215137  0.02659524  0.78222226     0.03600
C1866       C  0.08926302  0.02293347  0.74851751    -0.25200
H1867       H  0.08493179  0.98150697  0.66568235     0.08700
H1868       H  0.08421363  0.01229585  0.68582571     0.12300
H1869       H  0.09745794  0.96277851  0.76365957     0.12200
H1870       H  0.10053824  0.98429093  0.80897711     0.12000
H1871       H  0.09868152  0.01491746  0.82959420     0.12500
H1872       H  0.08600126  0.03370626  0.73172155     0.14500
C1873       C  0.13603653  0.13228081  0.63983869    -0.05500
C1874       C  0.14129048  0.11448662  0.64439369    -0.05500
C1875       C  0.13501488  0.10471215  0.67137108    -0.23600
C1876       C  0.12334833  0.11257305  0.69420370     0.18600
C1877       C  0.11765018  0.13037121  0.68954561     0.15800
C1878       C  0.12406325  0.14013734  0.66237638    -0.18700
C1879       C  0.10568885  0.13805482  0.71220399    -0.20500
C1880       C  0.09930439  0.12809133  0.73902298    -0.13000
C1881       C  0.10512287  0.11049161  0.74388650     0.03600
C1882       C  0.11723719  0.10286437  0.72153850    -0.25200
H1883       H  0.15050850  0.10818892  0.62733514     0.08700
H1884       H  0.13939338  0.09103851  0.67451153     0.12300
H1885       H  0.11996070  0.15387967  0.65907470     0.12200
H1886       H  0.10117169  0.15166634  0.70903015     0.12000
H1887       H  0.08992413  0.13413922  0.75605160     0.12500
H1888       H  0.12157258  0.08918151  0.72499109     0.14500
C1889       C  0.14278796  0.13643308  0.98545924    -0.05500
C1890       C  0.15442318  0.12542733  0.96735058    -0.05500
C1891       C  0.14797219  0.11464429  0.94182742    -0.23600
C1892       C  0.12975647  0.11472448  0.93378323     0.18600
C1893       C  0.11795944  0.12583739  0.95172101     0.15800
C1894       C  0.12451663  0.13652910  0.97744026    -0.18700
C1895       C  0.09979145  0.12612085  0.94358134    -0.20500
C1896       C  0.09337355  0.11564536  0.91774134    -0.13000
C1897       C  0.10493449  0.10453376  0.89963479     0.03600
C1898       C  0.12315255  0.10404180  0.90797540    -0.25200
H1899       H  0.16852440  0.12501068  0.97317792     0.08700
H1900       H  0.15724340  0.10623693  0.92837507     0.12300
H1901       H  0.11487732  0.14317024  0.49299864     0.12200
H1902       H  0.09055219  0.13456908  0.95701768     0.12000
H1903       H  0.07931663  0.11633413  0.91178170     0.12500
H1904       H  0.13222392  0.09564309  0.89401603     0.14500
C1905       C  0.27569204  0.16014466  0.64162577    -0.05500
C1906       C  0.27447006  0.15704870  0.60749003    -0.05500
C1907       C  0.25790885  0.15664087  0.59184325    -0.23600
C1908       C  0.24222242  0.15961352  0.60993621     0.18600
C1909       C  0.24325730  0.16284756  0.64430883     0.15800
C1910       C  0.25998773  0.16289078  0.66003960    -0.18700
C1911       C  0.22754719  0.16615302  0.66221047    -0.20500
C1912       C  0.21102563  0.16628548  0.64625551    -0.13000
C1913       C  0.20986661  0.16296341  0.61215398     0.03600
C1914       C  0.22555114  0.15955701  0.59415311    -0.25200
H1915       H  0.28640071  0.15483897  0.59282659     0.08700
H1916       H  0.25739053  0.15415441  0.56549398     0.12300
H1917       H  0.26082270  0.16542885  0.68634895     0.12200
H1918       H  0.22803709  0.16872043  0.68852989     0.12000
H1919       H  0.19911429  0.16891605  0.66067699     0.12500
H1920       H  0.22481024  0.15704126  0.56782158     0.14500
C1921       C  0.35236835  0.13639207  0.60659104    -0.05500
C1922       C  0.34545640  0.12003388  0.59574018    -0.05500
C1923       C  0.35289699  0.11136649  0.56857991    -0.23600
C1924       C  0.36754646  0.11879575  0.55196939     0.18600
C1925       C  0.37474729  0.13520783  0.56271224     0.15800
C1926       C  0.36699440  0.14401578  0.58983559    -0.18700
C1927       C  0.38964889  0.14238240  0.54627848    -0.20500
C1928       C  0.39743546  0.13326977  0.51975139    -0.13000
C1929       C  0.39030244  0.11697143  0.50900059     0.03600
C1930       C  0.37523909  0.10991146  0.52506836    -0.25200
H1931       H  0.33409580  0.11399188  0.60809163     0.08700
H1932       H  0.34723674  0.09878768  0.56066509     0.12300
H1933       H  0.37240135  0.15664680  0.59803984     0.12200
H1934       H  0.39540238  0.15491665  0.55417563     0.12000
H1935       H  0.40909535  0.13891036  0.50777008     0.12500
H1936       H  0.36971779  0.09726996  0.51711995     0.14500
C1937       C  0.34757532  0.13500489  0.76370338    -0.05500
C1938       C  0.33856071  0.12062734  0.77860149    -0.05500
C1939       C  0.34649693  0.11092858  0.80429017    -0.23600
C1940       C  0.36363275  0.11540283  0.81552008     0.18600
C1941       C  0.37277593  0.12986035  0.80066607     0.15800
C1942       C  0.36470012  0.13955941  0.77502538    -0.18700
C1943       C  0.38988342  0.13440049  0.81166403    -0.20500
C1944       C  0.39780911  0.12490007  0.83741072    -0.13000
C1945       C  0.38884512  0.11062492  0.85273999     0.03600
C1946       C  0.37175164  0.10580917  0.84143316    -0.25200
H1947       H  0.32538682  0.11680736  0.77024241     0.08700
H1948       H  0.33924640  0.09990063  0.81531024     0.12300
H1949       H  0.37183753  0.15058460  0.76369517     0.12200
H1950       H  0.39711112  0.14541134  0.80049469     0.12000
H1951       H  0.41096501  0.12888012  0.84559031     0.12500
H1952       H  0.36467733  0.09486311  0.85311401     0.14500
C1953       C  0.41073535  0.97773925  0.53701175    -0.05500
C1954       C  0.41257550  0.99203700  0.55902744    -0.05500
C1955       C  0.40922444  0.00964335  0.04618352    -0.23600
C1956       C  0.40818138  0.01316759  0.01225320     0.18600
C1957       C  0.40877394  0.99895440  0.49125304     0.15800
C1958       C  0.40856995  0.98128551  0.50307470    -0.18700
C1959       C  0.40694335  0.00270599  0.45742421    -0.20500
C1960       C  0.40607043  0.02021412  0.94427743    -0.13000
C1961       C  0.40785243  0.03444660  0.96651750     0.03600
C1962       C  0.40870162  0.03077553  0.00054198    -0.25200
H1963       H  0.41425794  0.98964030  0.58523265     0.08700
H1964       H  0.41022183  0.02046246  0.06378293     0.12300
H1965       H  0.40704638  0.97034773  0.48590592     0.12200
H1966       H  0.40494366  0.99202251  0.43987764     0.12000
H1967       H  0.40530401  0.02271777  0.91797073     0.12500
H1968       H  0.40995199  0.04163921  0.01799498     0.14500
C1969       C  0.37213311  0.85965641  0.90206521    -0.05500
C1970       C  0.39039844  0.86352556  0.89871904    -0.05500
C1971       C  0.39947627  0.87231314  0.92402287    -0.23600
C1972       C  0.39029065  0.87762646  0.95264512     0.18600
C1973       C  0.37200128  0.87339181  0.95636184     0.15800
C1974       C  0.36315815  0.86419601  0.93133346    -0.18700
C1975       C  0.36263549  0.87902973  0.98447420    -0.20500
C1976       C  0.37115491  0.88934669  0.00825899    -0.13000
C1977       C  0.38923447  0.89388463  0.00458115     0.03600
C1978       C  0.39886743  0.88764020  0.97707541    -0.25200
H1979       H  0.39754897  0.86006429  0.87635041     0.08700
H1980       H  0.41349716  0.87542175  0.92079493     0.12300
H1981       H  0.34903881  0.86128736  0.93407145     0.12200
H1982       H  0.34861879  0.87585625  0.98764431     0.12000
H1983       H  0.36514056  0.89592252  0.52913161     0.12500
H1984       H  0.41283778  0.89111119  0.97409442     0.14500
C1985       C  0.39065293  0.90529568  0.65506966    -0.05500
C1986       C  0.37697048  0.91480085  0.67111285    -0.05500
C1987       C  0.36700310  0.90684693  0.69652152    -0.23600
C1988       C  0.37048583  0.88920514  0.70619432     0.18600
C1989       C  0.38431669  0.87962455  0.69027440     0.15800
C1990       C  0.39435488  0.88774585  0.66507072    -0.18700
C1991       C  0.38783069  0.86199838  0.69963008    -0.20500
C1992       C  0.37789742  0.85394367  0.72476059    -0.13000
C1993       C  0.36427608  0.86333602  0.74119312     0.03600
C1994       C  0.36050615  0.88098773  0.73157768    -0.25200
H1995       H  0.37384078  0.92832919  0.66375659     0.08700
H1996       H  0.35648550  0.91444173  0.70840822     0.12300
H1997       H  0.40482828  0.88025303  0.65278919     0.12200
H1998       H  0.39836138  0.85445374  0.68764387     0.12000
H1999       H  0.38113576  0.84037924  0.73177768     0.12500
H2000       H  0.35009043  0.88839107  0.74417056     0.14500
C2001       C  0.15356486  0.86907914  0.84798914    -0.05500
C2002       C  0.15987339  0.88575289  0.83729232    -0.05500
C2003       C  0.15232638  0.89408479  0.80985139    -0.23600
C2004       C  0.13836755  0.88584178  0.79273686     0.18600
C2005       C  0.13212722  0.86892246  0.80299283     0.15800
C2006       C  0.13981136  0.86062691  0.83050693    -0.18700
C2007       C  0.11806097  0.86077105  0.78596548    -0.20500
C2008       C  0.10986105  0.86958765  0.75963620    -0.13000
C2009       C  0.11577011  0.88655505  0.74977451     0.03600
C2010       C  0.13026249  0.89445020  0.76603819    -0.25200
H2011       H  0.17050337  0.89245292  0.85038707     0.08700
H2012       H  0.15724464  0.90704893  0.80227871     0.12300
H2013       H  0.13493871  0.84770604  0.83853190     0.12200
H2014       H  0.11316450  0.84778431  0.79344666     0.12000
H2015       H  0.09870806  0.86328423  0.74736785     0.12500
H2016       H  0.13485508  0.90758392  0.75866999     0.14500
C2017       C  0.11015912  0.89637185  0.59586683    -0.05500
C2018       C  0.09934780  0.88758150  0.57277071    -0.05500
C2019       C  0.10690659  0.87925338  0.54517713    -0.23600
C2020       C  0.12547138  0.87931947  0.54038270     0.18600
C2021       C  0.13651958  0.88801507  0.56351858     0.15800
C2022       C  0.12878426  0.89661383  0.59095749    -0.18700
C2023       C  0.15511738  0.88778353  0.55894675    -0.20500
C2024       C  0.16496157  0.88180740  0.03242978    -0.13000
C2025       C  0.15182551  0.87037552  0.50858513     0.03600
C2026       C  0.13316946  0.87068222  0.51302577    -0.25200
H2027       H  0.08499660  0.88713632  0.57607461     0.08700
H2028       H  0.09823653  0.87260883  0.52775427     0.12300
H2029       H  0.13728143  0.90316130  0.60884846     0.12200
H2030       H  0.16381669  0.89432053  0.57647307     0.12000
H2031       H  0.17933818  0.88042840  0.03102230     0.12500
H2032       H  0.12462293  0.86403587  0.49536692     0.14500
C2033       C  0.28912105  0.85003161  0.84850163    -0.05500
C2034       C  0.28391996  0.86605632  0.86366430    -0.05500
C2035       C  0.26694963  0.86776415  0.87790569    -0.23600
C2036       C  0.25496237  0.85340072  0.87756331     0.18600
C2037       C  0.25994992  0.83735501  0.86173810     0.15800
C2038       C  0.27691008  0.83582836  0.84713845    -0.18700
C2039       C  0.24802996  0.82296441  0.86136796    -0.20500
C2040       C  0.23134661  0.82440172  0.87665921    -0.13000
C2041       C  0.22629474  0.84021743  0.89275250     0.03600
C2042       C  0.23817309  0.85471603  0.89304714    -0.25200
H2043       H  0.29313388  0.87714877  0.86515934     0.08700
H2044       H  0.26334201  0.88019801  0.88980022     0.12300
H2045       H  0.28082227  0.82334453  0.83573286     0.12200
H2046       H  0.25162812  0.81057021  0.84934733     0.12000
H2047       H  0.22238117  0.81309982  0.87592423     0.12500
H2048       H  0.23430573  0.86704675  0.90508345     0.14500
C2049       C  0.40501959  0.47163446  0.95691605    -0.05500
C2050       C  0.40415965  0.48593809  0.93452824    -0.05500
C2051       C  0.40402054  0.50355618  0.94591496    -0.23600
C2052       C  0.40448022  0.50722658  0.97991213     0.18600
C2053       C  0.40519343  0.49312914  0.50256215     0.15800
C2054       C  0.40511110  0.47527082  0.99097560    -0.18700
C2055       C  0.40492688  0.49634089  0.53667573    -0.20500
C2056       C  0.40498939  0.51379705  0.54870107    -0.13000
C2057       C  0.40552802  0.52836775  0.52689131     0.03600
C2058       C  0.40559305  0.52519899  0.49260206    -0.25200
H2059       H  0.40404494  0.48343746  0.90793432     0.08700
H2060       H  0.40371592  0.51450194  0.92787002     0.12300
H2061       H  0.40569773  0.46451067  0.50756439     0.12200
H2062       H  0.40477284  0.48534120  0.55408449     0.12000
H2063       H  0.40493371  0.51590413  0.57516910     0.12500
H2064       H  0.40507731  0.53595636  0.97418413     0.14500
C2065       C  0.34475310  0.78521087  0.82911620    -0.05500
C2066       C  0.35165617  0.77632177  0.85688665    -0.05500
C2067       C  0.35166638  0.75766221  0.85839658    -0.23600
C2068       C  0.34477508  0.74763019  0.83213651     0.18600
C2069       C  0.33793995  0.75653749  0.80409076     0.15800
C2070       C  0.33798141  0.77519441  0.80278929    -0.18700
C2071       C  0.33098104  0.74666074  0.77783517    -0.20500
C2072       C  0.33049236  0.72810258  0.77944722    -0.13000
C2073       C  0.33702412  0.71904585  0.80724723     0.03600
C2074       C  0.34435778  0.72889162  0.83349109    -0.25200
H2075       H  0.35690337  0.78378403  0.87749782     0.08700
H2076       H  0.35694359  0.75110509  0.88011638     0.12300
H2077       H  0.33259967  0.78193131  0.78125335     0.12200
H2078       H  0.32572218  0.75331353  0.75612862     0.12000
H2079       H  0.32481087  0.72080279  0.75894569     0.12500
H2080       H  0.34937106  0.72203410  0.85511385     0.14500
C2081       C  0.38053753  0.59887077  0.64499586    -0.05500
C2082       C  0.36361064  0.59228620  0.65396647    -0.05500
C2083       C  0.35381628  0.60022879  0.67966713    -0.23600
C2084       C  0.36071773  0.61499227  0.69670387     0.18600
C2085       C  0.37784103  0.62148628  0.68810175     0.15800
C2086       C  0.38761222  0.61337516  0.66254361    -0.18700
C2087       C  0.38485483  0.63620444  0.70483678    -0.20500
C2088       C  0.37494410  0.64463689  0.72954568    -0.13000
C2089       C  0.35778451  0.63857508  0.73818101     0.03600
C2090       C  0.35078559  0.62354822  0.72182150    -0.25200
H2091       H  0.35784974  0.58115008  0.64083027     0.08700
H2092       H  0.34074336  0.59498854  0.68588313     0.12300
H2093       H  0.40063370  0.61862809  0.65587303     0.12200
H2094       H  0.39798684  0.64131516  0.69861663     0.12000
H2095       H  0.38073941  0.65604662  0.74186975     0.12500
H2096       H  0.33763496  0.61862901  0.72841344     0.14500
C2097       C  0.38620093  0.61343529  0.99132079    -0.05500
C2098       C  0.39108549  0.63140983  0.98755734    -0.05500
C2099       C  0.38379728  0.64168119  0.96203993    -0.23600
C2100       C  0.37165098  0.63402971  0.93988822     0.18600
C2101       C  0.36664151  0.61597834  0.94384267     0.15800
C2102       C  0.37385923  0.60588811  0.96952507    -0.18700
C2103       C  0.35461494  0.60817604  0.92184791    -0.20500
C2104       C  0.34764259  0.61811716  0.89588439    -0.13000
C2105       C  0.35256760  0.63601636  0.89150452     0.03600
C2106       C  0.36452460  0.64399045  0.91369926    -0.25200
H2107       H  0.40059909  0.63746397  0.00418028     0.08700
H2108       H  0.38777013  0.65548828  0.95944212     0.12300
H2109       H  0.37006329  0.59199108  0.97217283     0.12200
H2110       H  0.35066049  0.59434469  0.92463256     0.12000
H2111       H  0.33839148  0.61175398  0.87914224     0.12500
H2112       H  0.36833436  0.65781720  0.91050492     0.14500
C2113       C  0.15916982  0.72536831  0.93463537    -0.05500
C2114       C  0.14909764  0.73376497  0.90986287    -0.05500
C2115       C  0.14770428  0.75230930  0.90868775    -0.23600
C2116       C  0.15636884  0.76279279  0.93229390     0.18600
C2117       C  0.16607097  0.75448643  0.95796430     0.15800
C2118       C  0.16740776  0.73580976  0.95898698    -0.18700
C2119       C  0.17470273  0.76503972  0.98156997    -0.20500
C2120       C  0.17449515  0.78362574  0.97878445    -0.13000
C2121       C  0.16558477  0.79194164  0.95246745     0.03600
C2122       C  0.15606248  0.78143955  0.92988284    -0.25200
H2123       H  0.14254816  0.72598934  0.89094291     0.08700
H2124       H  0.14015901  0.75845489  0.88893064     0.12300
H2125       H  0.17510746  0.72944152  0.97832431     0.12200
H2126       H  0.18208646  0.75891611  0.00156531     0.12000
H2127       H  0.18188916  0.79146576  0.99651326     0.12500
H2128       H  0.14910304  0.78772092  0.90952138     0.14500
C2129       C  0.27696201  0.66422526  0.84087679    -0.05500
C2130       C  0.26327924  0.66225276  0.81755547    -0.05500
C2131       C  0.24532498  0.66264353  0.82744634    -0.23600
C2132       C  0.24075926  0.66499474  0.86084879     0.18600
C2133       C  0.25443970  0.66678124  0.88451492     0.15800
C2134       C  0.27238979  0.66641544  0.87438726    -0.18700
C2135       C  0.24994833  0.66895490  0.91794638    -0.20500
C2136       C  0.23205403  0.66942887  0.92790841    -0.13000
C2137       C  0.21832267  0.66790981  0.90461338     0.03600
C2138       C  0.22278493  0.66565847  0.87102411    -0.25200
H2139       H  0.26646099  0.66049145  0.79166294     0.08700
H2140       H  0.23501737  0.66117040  0.80896658     0.12300
H2141       H  0.28281984  0.66790336  0.89267458     0.12200
H2142       H  0.26029125  0.67032130  0.93641836     0.12000
H2143       H  0.22894513  0.67119930  0.95384124     0.12500
H2144       H  0.21229141  0.66437761  0.85284067     0.14500
C2145       C  0.33909342  0.28248047  0.68512444    -0.05500
C2146       C  0.35300337  0.27379454  0.66819558    -0.05500
C2147       C  0.35418375  0.25524773  0.66828305    -0.23600
C2148       C  0.34143349  0.24505372  0.68523459     0.18600
C2149       C  0.32773160  0.25364837  0.70333167     0.15800
C2150       C  0.32669921  0.27234316  0.70331226    -0.18700
C2151       C  0.31499284  0.24336257  0.72024855    -0.20500
C2152       C  0.31546454  0.22476126  0.71828225    -0.13000
C2153       C  0.32869966  0.21617073  0.69945789     0.03600
C2154       C  0.34186214  0.22640936  0.68352421    -0.25200
H2155       H  0.36276873  0.28133855  0.65416582     0.08700
H2156       H  0.36482198  0.24887343  0.65444614     0.12300
H2157       H  0.31595363  0.27894333  0.71651477     0.12200
H2158       H  0.30443938  0.24970036  0.73435204     0.12000
H2159       H  0.30519920  0.21710729  0.73081910     0.12500
H2160       H  0.35216169  0.21989785  0.66901890     0.14500
C2161       C  0.38130878  0.39516558  0.49634899    -0.05500
C2162       C  0.36366402  0.40038443  0.50318728    -0.05500
C2163       C  0.35441846  0.39302296  0.52994610    -0.23600
C2164       C  0.36265498  0.38022993  0.55005537     0.18600
C2165       C  0.38026514  0.37459681  0.54283567     0.15800
C2166       C  0.38949697  0.38217335  0.51615176    -0.18700
C2167       C  0.38837628  0.36153502  0.56251587    -0.20500
C2168       C  0.37915070  0.35415460  0.58924430    -0.13000
C2169       C  0.36180734  0.35993223  0.59693804     0.03600
C2170       C  0.35359919  0.37297166  0.57725421    -0.25200
H2171       H  0.35712945  0.41041115  0.48820622     0.08700
H2172       H  0.34090052  0.39740552  0.53502419     0.12300
H2173       H  0.40383209  0.37945738  0.01981729     0.12200
H2174       H  0.40183950  0.35700856  0.55720154     0.12000
H2175       H  0.38562508  0.34402919  0.60407794     0.12500
H2176       H  0.34010266  0.37728503  0.58282874     0.14500
C2177       C  0.35215365  0.36552462  0.75281843    -0.05500
C2178       C  0.34522386  0.38249052  0.75995785    -0.05500
C2179       C  0.35268159  0.39292046  0.78491993    -0.23600
C2180       C  0.36716904  0.38654130  0.80332830     0.18600
C2181       C  0.37421126  0.36944693  0.79645248     0.15800
C2182       C  0.36670410  0.35907800  0.77120697    -0.18700
C2183       C  0.38861422  0.36300837  0.81500918    -0.20500
C2184       C  0.39584019  0.37332034  0.84037533    -0.13000
C2185       C  0.38890749  0.39032071  0.84750520     0.03600
C2186       C  0.37463074  0.39690292  0.82864591    -0.25200
H2187       H  0.33411158  0.38779316  0.74596680     0.08700
H2188       H  0.34710587  0.40599519  0.78983286     0.12300
H2189       H  0.37221286  0.34604585  0.76583392     0.12200
H2190       H  0.39419754  0.34995852  0.81009375     0.12000
H2191       H  0.40683523  0.36794946  0.85452445     0.12500
H2192       H  0.36913773  0.40998413  0.83399991     0.14500
C2193       C  0.15246359  0.21739202  0.56224835    -0.05500
C2194       C  0.14061088  0.22508307  0.58513522    -0.05500
C2195       C  0.13974065  0.24351787  0.58891919    -0.23600
C2196       C  0.15066729  0.25463745  0.56978121     0.18600
C2197       C  0.16227878  0.24712884  0.54592482     0.15800
C2198       C  0.16311496  0.22850851  0.54228097    -0.18700
C2199       C  0.17313972  0.25837943  0.52676051    -0.20500
C2200       C  0.17281728  0.27682158  0.53180327    -0.13000
C2201       C  0.16163852  0.28429883  0.55606878     0.03600
C2202       C  0.15041380  0.27312008  0.57465734    -0.25200
H2203       H  0.13232818  0.21679638  0.60090369     0.08700
H2204       H  0.13074589  0.24905902  0.60726515     0.12300
H2205       H  0.17232123  0.22269525  0.52463159     0.12200
H2206       H  0.18206703  0.25290878  0.50826188     0.12000
H2207       H  0.18154260  0.28520990  0.51709328     0.12500
H2208       H  0.14170197  0.27876187  0.59337411     0.14500
C2209       C  0.28247035  0.33834833  0.63247886    -0.05500
C2210       C  0.28046516  0.33823589  0.59793531    -0.05500
C2211       C  0.26348992  0.33914854  0.58366296    -0.23600
C2212       C  0.24819210  0.33999509  0.60370695     0.18600
C2213       C  0.25015834  0.34020141  0.63847319     0.15800
C2214       C  0.26723023  0.33953686  0.65256701    -0.18700
C2215       C  0.23499472  0.34077816  0.65869922    -0.20500
C2216       C  0.21802157  0.34072218  0.64480009    -0.13000
C2217       C  0.21579912  0.34035827  0.61037155     0.03600
C2218       C  0.23097161  0.34029634  0.58977626    -0.25200
H2219       H  0.29204947  0.33747621  0.58191734     0.08700
H2220       H  0.26232791  0.33899500  0.55700855     0.12300
H2221       H  0.26863110  0.33964980  0.67924179     0.12200
H2222       H  0.23624971  0.34099048  0.68539478     0.12000
H2223       H  0.20652717  0.34092323  0.66115214     0.12500
H2224       H  0.22937815  0.33995094  0.56320523     0.14500
C2225       C  0.13794610  0.64632808  0.85673355    -0.05500
C2226       C  0.12005271  0.65050202  0.85004276    -0.05500
C2227       C  0.11131060  0.64260559  0.82343628    -0.23600
C2228       C  0.12045576  0.63066465  0.80282782     0.18600
C2229       C  0.13859774  0.62669952  0.80902551     0.15800
C2230       C  0.14717184  0.63443504  0.83610111    -0.18700
C2231       C  0.14784849  0.61503123  0.78808356    -0.20500
C2232       C  0.13911321  0.60707266  0.76156678    -0.13000
C2233       C  0.12098633  0.61058869  0.75569009     0.03600
C2234       C  0.11175304  0.62253799  0.77626153    -0.25200
H2235       H  0.11277147  0.65972572  0.86562701     0.08700
H2236       H  0.09742392  0.64584771  0.81895838     0.12300
H2237       H  0.16107539  0.63136295  0.84089408     0.12200
H2238       H  0.16178970  0.61194678  0.79237169     0.12000
H2239       H  0.14647092  0.59790508  0.74598388     0.12500
H2240       H  0.09776232  0.62535716  0.77185000     0.14500
C2241       C  0.11810452  0.60421170  0.60005554    -0.05500
C2242       C  0.12742062  0.59335627  0.57757799    -0.05500
C2243       C  0.13635990  0.60085310  0.55042375    -0.23600
C2244       C  0.13623793  0.61937524  0.54533663     0.18600
C2245       C  0.12688300  0.63038827  0.56782212     0.15800
C2246       C  0.11783740  0.62275493  0.59486203    -0.18700
C2247       C  0.12673004  0.64888547  0.56293293    -0.20500
C2248       C  0.13554352  0.65641925  0.53581978    -0.13000
C2249       C  0.14475826  0.64565782  0.51303598     0.03600
C2250       C  0.14518081  0.62708131  0.51811192    -0.25200
H2251       H  0.12783064  0.57904351  0.58104330     0.08700
H2252       H  0.14341711  0.59216606  0.53347452     0.12300
H2253       H  0.11076280  0.63128450  0.61207208     0.12200
H2254       H  0.11967666  0.65753361  0.57995081     0.12000
H2255       H  0.12507637  0.66914645  0.02598521     0.12500
H2256       H  0.15216727  0.61863065  0.50063988     0.14500
C2257       C  0.13536729  0.36462507  0.00291602    -0.05500
C2258       C  0.11998544  0.35444330  0.48937882    -0.05500
C2259       C  0.10753682  0.36903249  0.97310197    -0.23600
C2260       C  0.11562910  0.38207631  0.95326354     0.18600
C2261       C  0.13373771  0.38658242  0.95845941     0.15800
C2262       C  0.14351413  0.37781379  0.98325486    -0.18700
C2263       C  0.14176734  0.39967112  0.93854410    -0.20500
C2264       C  0.13206905  0.40794622  0.91333037    -0.13000
C2265       C  0.11416016  0.40334120  0.90766072     0.03600
C2266       C  0.10596369  0.39050312  0.92802774    -0.25200
H2267       H  0.11484368  0.34240262  0.50074498     0.08700
H2268       H  0.09367501  0.36542851  0.96950510     0.12300
H2269       H  0.15740046  0.38124143  0.98722675     0.12200
H2270       H  0.15561424  0.40335000  0.94219025     0.12000
H2271       H  0.13867521  0.41778253  0.89791144     0.12500
H2272       H  0.09216636  0.38681496  0.92385751     0.14500
C2273       C  0.10869787  0.39025739  0.75457254    -0.05500
C2274       C  0.10402525  0.37216901  0.75199374    -0.05500
C2275       C  0.11129038  0.36158568  0.72681821    -0.23600
C2276       C  0.12314960  0.36901184  0.70360217     0.18600
C2277       C  0.12784355  0.38721585  0.70615518     0.15800
C2278       C  0.12070541  0.39763079  0.73163673    -0.18700
C2279       C  0.13948780  0.39482621  0.68298295    -0.20500
C2280       C  0.14634261  0.38458409  0.65724030    -0.13000
C2281       C  0.14176636  0.36650469  0.65417232     0.03600
C2282       C  0.13024932  0.35869685  0.67767399    -0.25200
H2283       H  0.09479887  0.36621550  0.76947086     0.08700
H2284       H  0.10751671  0.34767309  0.72533061     0.12300
H2285       H  0.12431571  0.41160686  0.73329694     0.12200
H2286       H  0.14320830  0.40876275  0.68462499     0.12000
H2287       H  0.15525323  0.39088584  0.63958200     0.12500
H2288       H  0.12668256  0.34474556  0.67558854     0.14500
C2289       C  0.09226083  0.47545770  0.79331661    -0.05500
C2290       C  0.09061348  0.48996245  0.81499628    -0.05500
C2291       C  0.09164783  0.50749709  0.80310180    -0.23600
C2292       C  0.09458260  0.51081958  0.76935322     0.18600
C2293       C  0.09678327  0.49629159  0.74754776     0.15800
C2294       C  0.09546093  0.47875403  0.75959722    -0.18700
C2295       C  0.10006775  0.49953659  0.71394609    -0.20500
C2296       C  0.10068300  0.51698658  0.70181234    -0.13000
C2297       C  0.09788050  0.53154027  0.72294806     0.03600
C2298       C  0.09508600  0.52836504  0.75690724    -0.25200
H2299       H  0.08816604  0.48773935  0.84106032     0.08700
H2300       H  0.09001542  0.51844267  0.82023980     0.12300
H2301       H  0.09692441  0.46764958  0.74269318     0.12200
H2302       H  0.10193133  0.48855004  0.69692343     0.12000
H2303       H  0.10291565  0.51907879  0.67563599     0.12500
H2304       H  0.09304133  0.53948849  0.77350654     0.14500
C2305       C  0.71870722  0.83799469  0.84868597    -0.05500
C2306       C  0.73278993  0.84159291  0.82669501    -0.05500
C2307       C  0.75040252  0.84187942  0.83796096    -0.23600
C2308       C  0.75412356  0.83854514  0.87135094     0.18600
C2309       C  0.73994911  0.83550596  0.89380104     0.15800
C2310       C  0.72236043  0.83535564  0.88235460    -0.18700
C2311       C  0.74361491  0.83223573  0.92720104    -0.20500
C2312       C  0.76123673  0.83160934  0.93820149    -0.13000
C2313       C  0.77541324  0.83422632  0.91596062     0.03600
C2314       C  0.77177017  0.83787419  0.88258608    -0.25200
H2315       H  0.73022027  0.84375960  0.80069057     0.08700
H2316       H  0.76112007  0.84435268  0.82047967     0.12300
H2317       H  0.71154342  0.83272301  0.89957836     0.12200
H2318       H  0.73287038  0.82993455  0.94471305     0.12000
H2319       H  0.76378745  0.82885365  0.96402813     0.12500
H2320       H  0.78265673  0.84005274  0.86530516     0.14500
C2321       C  0.53786429  0.91584897  0.56858301    -0.05500
C2322       C  0.52931427  0.90621473  0.54347806    -0.05500
C2323       C  0.51072546  0.90522882  0.54220742    -0.23600
C2324       C  0.50027174  0.91402538  0.56583932     0.18600
C2325       C  0.50865024  0.92371416  0.59137237     0.15800
C2326       C  0.52742440  0.92446161  0.59274188    -0.18700
C2327       C  0.49807240  0.93275096  0.61463178    -0.20500
C2328       C  0.47942882  0.93253447  0.61212327    -0.13000
C2329       C  0.47104430  0.92309198  0.58658183     0.03600
C2330       C  0.48157737  0.91361388  0.56384442    -0.25200
H2331       H  0.53703821  0.89946367  0.52458731     0.08700
H2332       H  0.50452049  0.89777892  0.52243384     0.12300
H2333       H  0.53387197  0.93199642  0.61213938     0.12200
H2334       H  0.50421814  0.94024683  0.63440526     0.12000
H2335       H  0.47157303  0.93990539  0.62995302     0.12500
H2336       H  0.47524912  0.90633680  0.54396560     0.14500
C2337       C  0.63852692  0.85319802  0.89534018    -0.05500
C2338       C  0.62344902  0.84473458  0.90888850    -0.05500
C2339       C  0.61492258  0.85181845  0.93673212    -0.23600
C2340       C  0.62140658  0.86743109  0.95146807     0.18600
C2341       C  0.63679473  0.87579124  0.93830561     0.15800
C2342       C  0.64517239  0.86868274  0.91032975    -0.18700
C2343       C  0.64349548  0.89123270  0.95314777    -0.20500
C2344       C  0.63474797  0.89865632  0.98027848    -0.13000
C2345       C  0.61909056  0.89084815  0.99286705     0.03600
C2346       C  0.61262248  0.87503422  0.97871009    -0.25200
H2347       H  0.61824519  0.83266089  0.89792813     0.08700
H2348       H  0.60321855  0.84515171  0.94661897     0.12300
H2349       H  0.65692442  0.87520977  0.90028486     0.12200
H2350       H  0.65534249  0.89772898  0.94345727     0.12000
H2351       H  0.63995143  0.91084767  0.99080240     0.12500
H2352       H  0.60152677  0.87030868  0.49096070     0.14500
C2353       C  0.64483731  0.85608184  0.73434946    -0.05500
C2354       C  0.63571619  0.84557701  0.71125221    -0.05500
C2355       C  0.62686743  0.85342672  0.68466519    -0.23600
C2356       C  0.62689184  0.87198191  0.68064103     0.18600
C2357       C  0.63624150  0.88276105  0.70334534     0.15800
C2358       C  0.64521584  0.87473757  0.73007862    -0.18700
C2359       C  0.63631082  0.90134806  0.69893439    -0.20500
C2360       C  0.62724233  0.90912630  0.67229925    -0.13000
C2361       C  0.61779330  0.89848662  0.64981784     0.03600
C2362       C  0.61768131  0.87989438  0.65426179    -0.25200
H2363       H  0.63527798  0.83120866  0.71391042     0.08700
H2364       H  0.61984867  0.84495585  0.66735338     0.12300
H2365       H  0.65219170  0.88298123  0.74775148     0.12200
H2366       H  0.64340024  0.90985660  0.71600783     0.12000
H2367       H  0.62757784  0.92347424  0.66931820     0.12500
H2368       H  0.61058040  0.87151714  0.63689995     0.14500
C2369       C  0.46733480  0.09023993  0.93075936    -0.05500
C2370       C  0.47651579  0.09858122  0.95668803    -0.05500
C2371       C  0.49515419  0.09896641  0.95710948    -0.23600
C2372       C  0.50499008  0.09094325  0.93165585     0.18600
C2373       C  0.49594170  0.08279328  0.90509967     0.15800
C2374       C  0.47715330  0.08258662  0.90470913    -0.18700
C2375       C  0.50586711  0.07461692  0.87985176    -0.20500
C2376       C  0.52453616  0.07406197  0.88140214    -0.13000
C2377       C  0.53360892  0.08187588  0.90798190     0.03600
C2378       C  0.52371736  0.09056883  0.93276545    -0.25200
H2379       H  0.46927397  0.10460412  0.97698933     0.08700
H2380       H  0.50186818  0.10527514  0.97763208     0.12300
H2381       H  0.47020423  0.07616667  0.88453399     0.12200
H2382       H  0.49918148  0.06834191  0.85924019     0.12000
H2383       H  0.53187892  0.06735021  0.86197053     0.12500
H2384       H  0.53056155  0.09662914  0.95342254     0.14500
C2385       C  0.59776698  0.97171168  0.53053935    -0.05500
C2386       C  0.59629360  0.98644832  0.55170681    -0.05500
C2387       C  0.59608265  0.00381554  0.53896618    -0.23600
C2388       C  0.59316763  0.00475669  0.00087637     0.18600
C2389       C  0.59926845  0.99210115  0.48328151     0.15800
C2390       C  0.59956776  0.97468408  0.49629570    -0.18700
C2391       C  0.59128112  0.99307544  0.94499184    -0.20500
C2392       C  0.59049823  0.01047430  0.93251271    -0.13000
C2393       C  0.59083719  0.02515369  0.95395344     0.03600
C2394       C  0.59226952  0.02217330  0.98816966    -0.25200
H2395       H  0.59494598  0.98453133  0.57811886     0.08700
H2396       H  0.59464757  0.01492169  0.55582732     0.12300
H2397       H  0.60080172  0.96343360  0.47968459     0.12200
H2398       H  0.59080599  0.98197188  0.92794861     0.12000
H2399       H  0.58945180  0.01244942  0.90608865     0.12500
H2400       H  0.59267877  0.03340766  0.00493994     0.14500
C2401       C  0.03332030  0.91049093  0.69099115    -0.05500
C2402       C  0.02621865  0.90117083  0.71817964    -0.05500
C2403       C  0.00782458  0.89866761  0.72135909    -0.23600
C2404       C  0.99619302  0.90549276  0.69744276     0.18600
C2405       C  0.00314266  0.91488036  0.66994436     0.15800
C2406       C  0.02168207  0.91729760  0.66686819    -0.18700
C2407       C  0.99139787  0.92179256  0.64619784    -0.20500
C2408       C  0.97292784  0.91967207  0.64996945    -0.13000
C2409       C  0.96595103  0.91048547  0.67739406     0.03600
C2410       C  0.97770865  0.90326608  0.70084315    -0.25200
H2411       H  0.03490756  0.89579666  0.73705445     0.08700
H2412       H  0.00269586  0.89146489  0.74259893     0.12300
H2413       H  0.02703462  0.92450750  0.64578263     0.12200
H2414       H  0.99648350  0.92900547  0.62492073     0.12000
H2415       H  0.96410155  0.92533639  0.63161301     0.12500
H2416       H  0.97246518  0.89619036  0.72217085     0.14500
C2417       C  0.85464078  0.86046145  0.87515074    -0.05500
C2418       C  0.84774247  0.87696939  0.86488668    -0.05500
C2419       C  0.85513961  0.88587441  0.83788200    -0.23600
C2420       C  0.86952333  0.87836879  0.82065095     0.18600
C2421       C  0.87690379  0.86198785  0.83130478     0.15800
C2422       C  0.86944240  0.85314730  0.85861943    -0.18700
C2423       C  0.89140581  0.85461120  0.81407418    -0.20500
C2424       C  0.89839363  0.86331407  0.78632943    -0.13000
C2425       C  0.89087442  0.87940264  0.77531870     0.03600
C2426       C  0.87649871  0.88690652  0.79270357    -0.25200
H2427       H  0.83636622  0.88285887  0.87736892     0.08700
H2428       H  0.84942130  0.89847248  0.83014427     0.12300
H2429       H  0.87482894  0.84041111  0.86641445     0.12200
H2430       H  0.89726209  0.84210446  0.82192781     0.12000
H2431       H  0.90956969  0.85738850  0.77329703     0.12500
H2432       H  0.87077097  0.89943696  0.78456015     0.14500
C2433       C  0.88765728  0.88144089  0.61715499    -0.05500
C2434       C  0.89254483  0.86379552  0.60983264    -0.05500
C2435       C  0.88360549  0.85422418  0.58546020    -0.23600
C2436       C  0.86948753  0.86207394  0.56811703     0.18600
C2437       C  0.86440494  0.87981937  0.57527245     0.15800
C2438       C  0.87363068  0.88945970  0.59956088    -0.18700
C2439       C  0.85012376  0.88755131  0.55811181    -0.20500
C2440       C  0.84114564  0.87789082  0.53379879    -0.13000
C2441       C  0.84634181  0.86037514  0.52610474     0.03600
C2442       C  0.86045363  0.85249253  0.54360611    -0.25200
H2443       H  0.90328403  0.85732721  0.62312276     0.08700
H2444       H  0.88766945  0.84064059  0.58032178     0.12300
H2445       H  0.86967033  0.90301874  0.60522090     0.12200
H2446       H  0.84598305  0.90110215  0.56331305     0.12000
H2447       H  0.83050703  0.88174812  0.02184083     0.12500
H2448       H  0.86456771  0.83898767  0.53786139     0.14500
C2449       C  0.96363452  0.07585516  0.81016882    -0.05500
C2450       C  0.97178466  0.08251763  0.78141011    -0.05500
C2451       C  0.99026671  0.08389319  0.77916888    -0.23600
C2452       C  0.00096417  0.07861775  0.80566951     0.18600
C2453       C  0.99299976  0.07205337  0.83500010     0.15800
C2454       C  0.97429830  0.07077592  0.83715646    -0.18700
C2455       C  0.00393207  0.06669948  0.86133125    -0.20500
C2456       C  0.02255346  0.06769694  0.85837355    -0.13000
C2457       C  0.03043675  0.07422487  0.82920511     0.03600
C2458       C  0.01953380  0.07971255  0.80305579    -0.25200
H2459       H  0.96383930  0.08651741  0.76033340     0.08700
H2460       H  0.99620917  0.08895261  0.75654417     0.12300
H2461       H  0.96811190  0.06561865  0.85942913     0.12200
H2462       H  0.99811076  0.06166179  0.88402262     0.12000
H2463       H  0.03076977  0.06347857  0.87888768     0.12500
H2464       H  0.02551927  0.08470034  0.78039281     0.14500
C2465       C  0.90464672  0.01507913  0.79785500    -0.05500
C2466       C  0.91663576  0.00336178  0.81332764    -0.05500
C2467       C  0.91853356  0.98584975  0.80213015    -0.23600
C2468       C  0.90863666  0.97987157  0.77499127     0.18600
C2469       C  0.89607060  0.99136783  0.76004288     0.15800
C2470       C  0.89402108  0.00882191  0.77180247    -0.18700
C2471       C  0.88625668  0.98543806  0.73277019    -0.20500
C2472       C  0.88922875  0.96844311  0.71980339    -0.13000
C2473       C  0.90204236  0.95711201  0.73389529     0.03600
C2474       C  0.91148471  0.96280053  0.76191386    -0.25200
H2475       H  0.92499269  0.00792105  0.83335651     0.08700
H2476       H  0.92816084  0.97718499  0.81397506     0.12300
H2477       H  0.88482500  0.01780320  0.75952098     0.12200
H2478       H  0.87652932  0.99406395  0.72108695     0.12000
H2479       H  0.88167883  0.96425865  0.69841115     0.12500
H2480       H  0.92128081  0.95409051  0.77316951     0.14500
C2481       C  0.65004648  0.13121949  0.59442104    -0.05500
C2482       C  0.65637685  0.11402830  0.58720089    -0.05500
C2483       C  0.64963965  0.10451036  0.56039813    -0.23600
C2484       C  0.63636727  0.11197704  0.54036110     0.18600
C2485       C  0.62978642  0.12922482  0.54746073     0.15800
C2486       C  0.63672327  0.13877708  0.57435450    -0.18700
C2487       C  0.61632203  0.13655876  0.52762198    -0.20500
C2488       C  0.60934587  0.12683342  0.50121605    -0.13000
C2489       C  0.61584895  0.10970593  0.49394304     0.03600
C2490       C  0.62946793  0.10240254  0.51353816    -0.25200
H2491       H  0.66667068  0.10794894  0.60221237     0.08700
H2492       H  0.65480217  0.09129165  0.55537032     0.12300
H2493       H  0.63174722  0.15203055  0.57967164     0.12200
H2494       H  0.61108088  0.14973380  0.53269449     0.12000
H2495       H  0.59256115  0.12681855  0.99208135     0.12500
H2496       H  0.63445800  0.08913414  0.50832762     0.14500
C2497       C  0.64680062  0.13804948  0.75324516    -0.05500
C2498       C  0.63328761  0.14802382  0.76877692    -0.05500
C2499       C  0.62289404  0.14058260  0.79399888    -0.23600
C2500       C  0.62569097  0.12292488  0.80410050     0.18600
C2501       C  0.63941828  0.11278482  0.78910239     0.15800
C2502       C  0.65000170  0.12045394  0.76391203    -0.18700
C2503       C  0.64212536  0.09509046  0.79931266    -0.20500
C2504       C  0.63139476  0.08756310  0.82412694    -0.13000
C2505       C  0.61771889  0.09754410  0.83916271     0.03600
C2506       C  0.61493076  0.11525059  0.82887948    -0.25200
H2507       H  0.63059070  0.16160608  0.76112213     0.08700
H2508       H  0.61249737  0.14858402  0.80531083     0.12300
H2509       H  0.66034511  0.11261138  0.75206144     0.12200
H2510       H  0.65254475  0.08707257  0.78813204     0.12000
H2511       H  0.63385107  0.07391711  0.83167420     0.12500
H2512       H  0.60450007  0.12313548  0.84038933     0.14500
C2513       C  0.89072918  0.09393013  0.72551149    -0.05500
C2514       C  0.88603681  0.08348605  0.69812341    -0.05500
C2515       C  0.87863077  0.09136555  0.67003702    -0.23600
C2516       C  0.87590041  0.10984171  0.66881601     0.18600
C2517       C  0.88099061  0.12048979  0.69598714     0.15800
C2518       C  0.88831941  0.11246792  0.72415721    -0.18700
C2519       C  0.87844609  0.13896992  0.69471741    -0.20500
C2520       C  0.87062064  0.14682430  0.66707955    -0.13000
C2521       C  0.86516163  0.13634992  0.64023891     0.03600
C2522       C  0.86798502  0.11783765  0.64110886    -0.25200
H2523       H  0.88779133  0.06915850  0.69865655     0.08700
H2524       H  0.87488066  0.08299244  0.64942510     0.12300
H2525       H  0.89199932  0.12063617  0.74512621     0.12200
H2526       H  0.88235247  0.14734475  0.71525288     0.12000
H2527       H  0.86863804  0.16112846  0.66689538     0.12500
H2528       H  0.86389013  0.10966290  0.62044388     0.14500
C2529       C  0.88143961  0.09330908  0.88756802    -0.05500
C2530       C  0.86339907  0.08957608  0.89416757    -0.05500
C2531       C  0.85427961  0.09871394  0.91917588    -0.23600
C2532       C  0.86310914  0.11164997  0.93803619     0.18600
C2533       C  0.88126293  0.11546994  0.93143197     0.15800
C2534       C  0.89026649  0.10631253  0.90630177    -0.18700
C2535       C  0.89016977  0.12835680  0.95013126    -0.20500
C2536       C  0.88124614  0.13726800  0.97548031    -0.13000
C2537       C  0.86327100  0.13344989  0.98260672     0.03600
C2538       C  0.85419808  0.12071367  0.96356631    -0.25200
H2539       H  0.85631647  0.07969461  0.87982461     0.08700
H2540       H  0.84034947  0.09563885  0.92381445     0.12300
H2541       H  0.90418381  0.10932094  0.90135435     0.12200
H2542       H  0.90407183  0.13145295  0.94531952     0.12000
H2543       H  0.88849988  0.14703213  0.98978858     0.12500
H2544       H  0.84373140  0.11343653  0.48083943     0.14500
C2545       C  0.78634747  0.15927564  0.58790442    -0.05500
C2546       C  0.77307828  0.15914596  0.56352401    -0.05500
C2547       C  0.75502948  0.15909637  0.57234689    -0.23600
C2548       C  0.74994678  0.15917899  0.60571878     0.18600
C2549       C  0.76317656  0.15936358  0.63048907     0.15800
C2550       C  0.78129935  0.15943821  0.62142181    -0.18700
C2551       C  0.75802582  0.15946633  0.66386930    -0.20500
C2552       C  0.73991768  0.15936717  0.67261135    -0.13000
C2553       C  0.72668847  0.15921446  0.64813308     0.03600
C2554       C  0.73184296  0.15910891  0.61469340    -0.25200
H2555       H  0.77665724  0.15911544  0.53759246     0.08700
H2556       H  0.74504108  0.15899739  0.55305576     0.12300
H2557       H  0.79144428  0.15959628  0.64042484     0.12200
H2558       H  0.76798360  0.15963213  0.68317957     0.12000
H2559       H  0.73625450  0.15950054  0.69852309     0.12500
H2560       H  0.72174768  0.15897197  0.59556704     0.14500
C2561       C  0.65768802  0.70993445  0.83207929    -0.05500
C2562       C  0.64486600  0.71915790  0.85087127    -0.05500
C2563       C  0.64418600  0.73776708  0.85054436    -0.23600
C2564       C  0.65638343  0.74760626  0.83153270     0.18600
C2565       C  0.66943057  0.73857811  0.81256383     0.15800
C2566       C  0.66998584  0.71977503  0.81288733    -0.18700
C2567       C  0.68167667  0.74855925  0.79373649    -0.20500
C2568       C  0.68098833  0.76724951  0.79374310    -0.13000
C2569       C  0.66802614  0.77631076  0.81252224     0.03600
C2570       C  0.65575684  0.76632946  0.83134268    -0.25200
H2571       H  0.63526004  0.71194446  0.86587457     0.08700
H2572       H  0.63410721  0.74447719  0.86526640     0.12300
H2573       H  0.68000098  0.71283498  0.79839186     0.12200
H2574       H  0.69181370  0.74192086  0.77907920     0.12000
H2575       H  0.69063803  0.77461490  0.77916438     0.12500
H2576       H  0.64572550  0.77314204  0.84605669     0.14500
C2577       C  0.83363569  0.77716855  0.94348644    -0.05500
C2578       C  0.84511865  0.76956033  0.91987816    -0.05500
C2579       C  0.84644344  0.75108798  0.91680336    -0.23600
C2580       C  0.83624686  0.73989199  0.93719554     0.18600
C2581       C  0.82473253  0.74736973  0.96121716     0.15800
C2582       C  0.82353863  0.76597734  0.96427575    -0.18700
C2583       C  0.81446159  0.73609144  0.98142621    -0.20500
C2584       C  0.81539600  0.71759230  0.97752190    -0.13000
C2585       C  0.82666914  0.71009687  0.95345286     0.03600
C2586       C  0.83720051  0.72134790  0.93360908    -0.25200
H2587       H  0.85299518  0.77791305  0.90355205     0.08700
H2588       H  0.85532201  0.74556120  0.89824319     0.12300
H2589       H  0.81279131  0.77419738  0.48141846     0.12200
H2590       H  0.80459378  0.74385649  0.49920350     0.12000
H2591       H  0.80697464  0.71148460  0.49277787     0.12500
H2592       H  0.84594593  0.71569136  0.91494546     0.14500
C2593       C  0.77698237  0.65115021  0.89799305    -0.05500
C2594       C  0.77509850  0.65068179  0.86344870    -0.05500
C2595       C  0.75818421  0.64995681  0.84898927    -0.23600
C2596       C  0.74277929  0.65000368  0.86877469     0.18600
C2597       C  0.74454034  0.65047729  0.90356589     0.15800
C2598       C  0.76161185  0.65082412  0.91795014    -0.18700
C2599       C  0.72918033  0.65092045  0.92337543    -0.20500
C2600       C  0.71226634  0.65109504  0.90896791    -0.13000
C2601       C  0.71029005  0.65066510  0.87442657     0.03600
C2602       C  0.72566506  0.64992758  0.85441749    -0.25200
H2603       H  0.78675405  0.65087966  0.84755688     0.08700
H2604       H  0.75715642  0.64961974  0.82229873     0.12300
H2605       H  0.76292270  0.65133410  0.94461493     0.12200
H2606       H  0.73023893  0.65135369  0.95006397     0.12000
H2607       H  0.70066583  0.65167208  0.92498119     0.12500
H2608       H  0.72432808  0.64969424  0.82775877     0.14500
C2609       C  0.53061381  0.40834834  0.92301362    -0.05500
C2610       C  0.52238740  0.39586217  0.94407655    -0.05500
C2611       C  0.50381117  0.39489959  0.94635561    -0.23600
C2612       C  0.49314099  0.40640894  0.92759471     0.18600
C2613       C  0.50127940  0.41881612  0.90589634     0.15800
C2614       C  0.51996349  0.41971561  0.90376929    -0.18700
C2615       C  0.49058193  0.43027736  0.88705506    -0.20500
C2616       C  0.47200551  0.42965857  0.89004508    -0.13000
C2617       C  0.46383150  0.41763602  0.91203663     0.03600
C2618       C  0.47448675  0.40590801  0.93053221    -0.25200
H2619       H  0.53033069  0.38701007  0.95922636     0.08700
H2620       H  0.49779719  0.38529035  0.96308017     0.12300
H2621       H  0.52620113  0.42943251  0.88751609     0.12200
H2622       H  0.49658966  0.43985308  0.87024557     0.12000
H2623       H  0.46403473  0.43882315  0.87557564     0.12500
H2624       H  0.46828269  0.39653720  0.94750465     0.14500
C2625       C  0.52939227  0.57263745  0.59624500    -0.05500
C2626       C  0.51988491  0.56235736  0.61945659    -0.05500
C2627       C  0.50116266  0.56259404  0.62004250    -0.23600
C2628       C  0.49163752  0.57297485  0.59717941     0.18600
C2629       C  0.50115612  0.58360941  0.57422013     0.15800
C2630       C  0.51988722  0.58349689  0.57411811    -0.18700
C2631       C  0.49180891  0.59385888  0.55108464    -0.20500
C2632       C  0.47320322  0.59331150  0.55010977    -0.13000
C2633       C  0.46351047  0.58262618  0.57239297     0.03600
C2634       C  0.47282249  0.57263277  0.59628333    -0.25200
H2635       H  0.52692000  0.55391037  0.63678349     0.08700
H2636       H  0.49414130  0.55438003  0.63791253     0.12300
H2637       H  0.52706001  0.59146487  0.55603849     0.12200
H2638       H  0.49890790  0.60209644  0.53333386     0.12000
H2639       H  0.46637441  0.60118304  0.53158538     0.12500
H2640       H  0.46549211  0.56433009  0.61358697     0.14500
C2641       C  0.61169751  0.59601740  0.01325795    -0.05500
C2642       C  0.62945378  0.59142495  0.00603541    -0.05500
C2643       C  0.63810606  0.59871844  0.97861356    -0.23600
C2644       C  0.62915720  0.61078545  0.95804885     0.18600
C2645       C  0.61138644  0.61579100  0.96539099     0.15800
C2646       C  0.60274654  0.60835205  0.99298583    -0.18700
C2647       C  0.60259712  0.62808738  0.94491118    -0.20500
C2648       C  0.61144497  0.63549452  0.91761406    -0.13000
C2649       C  0.62907952  0.63049052  0.91018264     0.03600
C2650       C  0.63777444  0.61800254  0.93037293    -0.25200
H2651       H  0.63656854  0.58191349  0.02126339     0.08700
H2652       H  0.65176627  0.59482749  0.97336114     0.12300
H2653       H  0.58902827  0.61194962  0.99836454     0.12200
H2654       H  0.58898144  0.63207759  0.95015705     0.12000
H2655       H  0.60453713  0.64514228  0.90236478     0.12500
H2656       H  0.65146201  0.61418967  0.92499337     0.14500
C2657       C  0.63676987  0.63016573  0.75314565    -0.05500
C2658       C  0.62575869  0.64050087  0.73258882    -0.05500
C2659       C  0.61659726  0.63280863  0.70627116    -0.23600
C2660       C  0.61811563  0.61452609  0.69991732     0.18600
C2661       C  0.62905910  0.60383420  0.72031437     0.15800
C2662       C  0.63840520  0.61173349  0.74680205    -0.18700
C2663       C  0.63035252  0.58546966  0.71379714    -0.20500
C2664       C  0.62105202  0.57787941  0.68724517    -0.13000
C2665       C  0.61026235  0.58849123  0.66671687     0.03600
C2666       C  0.60885001  0.60682814  0.67341465    -0.25200
H2667       H  0.62415201  0.65465884  0.73693915     0.08700
H2668       H  0.60823393  0.64119423  0.69091757     0.12300
H2669       H  0.64669395  0.60355339  0.76264098     0.12200
H2670       H  0.63860222  0.57698991  0.72913461     0.12000
H2671       H  0.62238685  0.56373832  0.68264831     0.12500
H2672       H  0.60058477  0.61519929  0.65782654     0.14500
C2673       C  0.58711952  0.51768521  0.54118459    -0.05500
C2674       C  0.58827487  0.50223627  0.56066734    -0.05500
C2675       C  0.58875386  0.48541080  0.54597563    -0.23600
C2676       C  0.58154708  0.48451708  0.01347437     0.18600
C2677       C  0.58394201  0.49981886  0.99353665     0.15800
C2678       C  0.58675090  0.51606141  0.50650160    -0.18700
C2679       C  0.58580836  0.49786316  0.95918218    -0.20500
C2680       C  0.58574385  0.48087188  0.94485336    -0.13000
C2681       C  0.58365435  0.46558495  0.96460024     0.03600
C2682       C  0.58125636  0.46757611  0.99888065    -0.25200
H2683       H  0.58856870  0.50315812  0.58736173     0.08700
H2684       H  0.58944997  0.47368350  0.56160956     0.12300
H2685       H  0.58597369  0.52791594  0.49120882     0.12200
H2686       H  0.58759688  0.50944363  0.94346843     0.12000
H2687       H  0.58749888  0.47967708  0.91839909     0.12500
H2688       H  0.57954813  0.45588952  0.01439439     0.14500
C2689       C  0.96584737  0.41135665  0.81558639    -0.05500
C2690       C  0.97502666  0.39940370  0.79494097    -0.05500
C2691       C  0.99364681  0.39861881  0.79518858    -0.23600
C2692       C  0.00341661  0.40990031  0.81588310     0.18600
C2693       C  0.99432138  0.42169871  0.83732337     0.15800
C2694       C  0.97557577  0.42225860  0.83721492    -0.18700
C2695       C  0.00415749  0.43304491  0.85786254    -0.20500
C2696       C  0.02282440  0.43298245  0.85662248    -0.13000
C2697       C  0.03193927  0.42156641  0.83486639     0.03600
C2698       C  0.02212933  0.40986648  0.81489586    -0.25200
H2699       H  0.96780386  0.39085930  0.77812334     0.08700
H2700       H  0.00041076  0.38945842  0.77868814     0.12300
H2701       H  0.96860884  0.43157031  0.85314042     0.12200
H2702       H  0.99742049  0.44215672  0.87448583     0.12000
H2703       H  0.03012705  0.44207377  0.87230118     0.12500
H2704       H  0.02904219  0.40094700  0.79812824     0.14500
C2705       C  0.03923459  0.58507364  0.66996026    -0.05500
C2706       C  0.03111361  0.57542198  0.64442080    -0.05500
C2707       C  0.01252329  0.57503371  0.64146746    -0.23600
C2708       C  0.00173107  0.58417244  0.66419428     0.18600
C2709       C  0.00980788  0.59409815  0.68975173     0.15800
C2710       C  0.02847896  0.59458659  0.69232508    -0.18700
C2711       C  0.99906875  0.60304426  0.71277385    -0.20500
C2712       C  0.98050062  0.60180534  0.71103085    -0.13000
C2713       C  0.97232089  0.59175379  0.68606454     0.03600
C2714       C  0.98302269  0.58320086  0.66232213    -0.25200
H2715       H  0.03914779  0.56800032  0.62690113     0.08700
H2716       H  0.00658088  0.56734682  0.62172227     0.12300
H2717       H  0.03460591  0.60202265  0.71219530     0.12200
H2718       H  0.00502584  0.61072169  0.73249601     0.12000
H2719       H  0.97251961  0.60853594  0.72955625     0.12500
H2720       H  0.97682574  0.57533845  0.64306938     0.14500
C2721       C  0.89344158  0.61177010  0.76511994    -0.05500
C2722       C  0.90013284  0.62829717  0.77566195    -0.05500
C2723       C  0.89232053  0.63711781  0.80247807    -0.23600
C2724       C  0.87780191  0.62944930  0.81929146     0.18600
C2725       C  0.87122677  0.61267966  0.80906631     0.15800
C2726       C  0.87901432  0.60402668  0.78203751    -0.18700
C2727       C  0.85693963  0.60479276  0.82601553    -0.20500
C2728       C  0.84909671  0.61346937  0.85275492    -0.13000
C2729       C  0.85528344  0.63024889  0.86285502     0.03600
C2730       C  0.86968918  0.63821840  0.84604926    -0.25200
H2731       H  0.91136690  0.63441922  0.76311431     0.08700
H2732       H  0.89762573  0.64989723  0.81005584     0.12300
H2733       H  0.87389479  0.59117273  0.77431405     0.12200
H2734       H  0.85177647  0.59192196  0.81850996     0.12000
H2735       H  0.83793845  0.60714326  0.86525086     0.12500
H2736       H  0.87455111  0.65115265  0.85376206     0.14500
C2737       C  0.85603500  0.63857030  0.52177983    -0.05500
C2738       C  0.86996895  0.64890909  0.53479814    -0.05500
C2739       C  0.88098365  0.64220353  0.55960491    -0.23600
C2740       C  0.87841249  0.62491967  0.57186056     0.18600
C2741       C  0.86450828  0.61426107  0.55904608     0.15800
C2742       C  0.85329899  0.62119312  0.53416089    -0.18700
C2743       C  0.86217792  0.59687179  0.57132239    -0.20500
C2744       C  0.87331400  0.59027128  0.59632828    -0.13000
C2745       C  0.88698554  0.60092472  0.60950877     0.03600
C2746       C  0.88951092  0.61820574  0.59685171    -0.25200
H2747       H  0.86960242  0.66013593  0.02507405     0.08700
H2748       H  0.89160081  0.65053715  0.56910105     0.12300
H2749       H  0.84275222  0.61300152  0.52404116     0.12200
H2750       H  0.85168165  0.58842913  0.56177192     0.12000
H2751       H  0.87109209  0.57691396  0.60563609     0.12500
H2752       H  0.90002161  0.62656204  0.60673582     0.14500
C2753       C  0.91856965  0.53098255  0.71968532    -0.05500
C2754       C  0.92306860  0.51755902  0.69704778    -0.05500
C2755       C  0.92324311  0.49969816  0.70672806    -0.23600
C2756       C  0.91887003  0.49491659  0.73923788     0.18600
C2757       C  0.91444530  0.50827483  0.76242242     0.15800
C2758       C  0.91437356  0.52626112  0.75252070    -0.18700
C2759       C  0.91001270  0.50334963  0.79493612    -0.20500
C2760       C  0.90974988  0.48534197  0.80420002    -0.13000
C2761       C  0.91398673  0.47201534  0.78113470     0.03600
C2762       C  0.91867408  0.47695362  0.74876034    -0.25200
H2763       H  0.92639882  0.52087319  0.67169286     0.08700
H2764       H  0.92668427  0.48959320  0.68867905     0.12300
H2765       H  0.91091029  0.53651988  0.77021326     0.12200
H2766       H  0.90660635  0.51338787  0.81307628     0.12000
H2767       H  0.90612323  0.48183629  0.82929084     0.12500
H2768       H  0.92197375  0.46677755  0.73074034     0.14500
C2769       C  0.66961194  0.28179864  0.68676554    -0.05500
C2770       C  0.68169071  0.27414939  0.70916511    -0.05500
C2771       C  0.68344736  0.25563573  0.71157808    -0.23600
C2772       C  0.67315919  0.24442041  0.69158485     0.18600
C2773       C  0.66074969  0.25198592  0.66934439     0.15800
C2774       C  0.65903419  0.27060057  0.66710415    -0.18700
C2775       C  0.65047180  0.24080919  0.64930348    -0.20500
C2776       C  0.65270656  0.22233903  0.65076979    -0.13000
C2777       C  0.66519992  0.21466336  0.67236321     0.03600
C2778       C  0.67526666  0.22580197  0.69305208    -0.25200
H2779       H  0.69001286  0.28250846  0.72451249     0.08700
H2780       H  0.69301983  0.25009843  0.72879343     0.12300
H2781       H  0.64968204  0.27635091  0.64973655     0.12200
H2782       H  0.64085878  0.24635560  0.63219934     0.12000
H2783       H  0.64473196  0.21403739  0.63469083     0.12500
H2784       H  0.68491840  0.22002792  0.70983510     0.14500
C2785       C  0.63987275  0.35914714  0.75136092    -0.05500
C2786       C  0.62190659  0.35413690  0.75561768    -0.05500
C2787       C  0.61117189  0.36237434  0.77938442    -0.23600
C2788       C  0.61815316  0.37584996  0.79942703     0.18600
C2789       C  0.63616199  0.38112576  0.79535521     0.15800
C2790       C  0.64693580  0.37272016  0.77136934    -0.18700
C2791       C  0.64305753  0.39466272  0.81547748    -0.20500
C2792       C  0.63235361  0.40260219  0.83980341    -0.13000
C2793       C  0.61453691  0.39720695  0.84443436     0.03600
C2794       C  0.60747069  0.38394540  0.82377142    -0.25200
H2795       H  0.61607700  0.34383142  0.74041122     0.08700
H2796       H  0.59739999  0.35817827  0.78210212     0.12300
H2797       H  0.66072514  0.37680750  0.76815005     0.12200
H2798       H  0.65680450  0.39894857  0.81271011     0.12000
H2799       H  0.63813734  0.41274058  0.85546680     0.12500
H2800       H  0.59377336  0.37961694  0.82712442     0.14500
C2801       C  0.64317890  0.36525251  0.60158805    -0.05500
C2802       C  0.64771415  0.38318197  0.59604341    -0.05500
C2803       C  0.64025159  0.39255976  0.56970359    -0.23600
C2804       C  0.62821120  0.38409195  0.54850395     0.18600
C2805       C  0.62332804  0.36614586  0.55430177     0.15800
C2806       C  0.63082388  0.35685857  0.58084271    -0.18700
C2807       C  0.61120453  0.35771685  0.53319782    -0.20500
C2808       C  0.60413939  0.36693380  0.50627974    -0.13000
C2809       C  0.60919805  0.38463826  0.50001943     0.03600
C2810       C  0.62112177  0.39321008  0.52139504    -0.25200
H2811       H  0.65722001  0.38988484  0.61179617     0.08700
H2812       H  0.64406459  0.40632094  0.56566635     0.12300
H2813       H  0.62724874  0.34302439  0.58501727     0.12200
H2814       H  0.60727256  0.34399306  0.53740107     0.12000
H2815       H  0.59464673  0.36007133  0.98927747     0.12500
H2816       H  0.62486728  0.40696606  0.51697502     0.14500
C2817       C  0.84701411  0.21494168  0.55069266    -0.05500
C2818       C  0.86054275  0.22354911  0.56849249    -0.05500
C2819       C  0.86118826  0.24210959  0.56991232    -0.23600
C2820       C  0.84826841  0.25234007  0.55362826     0.18600
C2821       C  0.83494078  0.24383137  0.53473447     0.15800
C2822       C  0.83447722  0.22516545  0.53318952    -0.18700
C2823       C  0.82199294  0.25413260  0.51857476    -0.20500
C2824       C  0.82199710  0.27268167  0.52179488    -0.13000
C2825       C  0.83496580  0.28116851  0.54114106     0.03600
C2826       C  0.84821506  0.27091784  0.55662130    -0.25200
H2827       H  0.87033952  0.21591601  0.58215260     0.08700
H2828       H  0.87152090  0.24844171  0.58439032     0.12300
H2829       H  0.82398956  0.21861809  0.51940899     0.12200
H2830       H  0.81170271  0.24783482  0.50394005     0.12000
H2831       H  0.81170063  0.28036292  0.50957519     0.12500
H2832       H  0.85831948  0.27736220  0.57151281     0.14500
C2833       C  0.85866795  0.35523831  0.97165465    -0.05500
C2834       C  0.86369442  0.34605543  0.44804509    -0.05500
C2835       C  0.88453297  0.35585578  0.93512918    -0.23600
C2836       C  0.87830311  0.37156264  0.92046144     0.18600
C2837       C  0.86197640  0.37913439  0.93115897     0.15800
C2838       C  0.85216235  0.37084021  0.95660556    -0.18700
C2839       C  0.85594041  0.39499120  0.91650054    -0.20500
C2840       C  0.86603406  0.40327291  0.89164443    -0.13000
C2841       C  0.88224465  0.39576830  0.88092452     0.03600
C2842       C  0.88824972  0.37986408  0.89542220    -0.25200
H2843       H  0.86331123  0.33173751  0.45159944     0.08700
H2844       H  0.89702437  0.34989258  0.92722173     0.12300
H2845       H  0.83976318  0.37671618  0.96516327     0.12200
H2846       H  0.84348213  0.40101409  0.92433209     0.12000
H2847       H  0.86110728  0.41549154  0.88065157     0.12500
H2848       H  0.90074646  0.37396226  0.88732834     0.14500
C2849       C  0.86466198  0.35843788  0.62878859    -0.05500
C2850       C  0.87922571  0.34943735  0.64283749    -0.05500
C2851       C  0.88821704  0.35672461  0.66978461    -0.23600
C2852       C  0.88259205  0.37298850  0.68332355     0.18600
C2853       C  0.86786966  0.38205113  0.66938375     0.15800
C2854       C  0.85912037  0.37480030  0.64206313    -0.18700
C2855       C  0.86200420  0.39813027  0.68321428    -0.20500
C2856       C  0.87067123  0.40522516  0.71062315    -0.13000
C2857       C  0.88539016  0.39641084  0.72452361     0.03600
C2858       C  0.89132637  0.38028572  0.71070205    -0.25200
H2859       H  0.88361123  0.33674469  0.63306015     0.08700
H2860       H  0.89942890  0.34956783  0.68022635     0.12300
H2861       H  0.84773382  0.38170663  0.63161428     0.12200
H2862       H  0.85069053  0.40519174  0.67289720     0.12000
H2863       H  0.86589173  0.41767531  0.72088376     0.12500
H2864       H  0.90265263  0.37337305  0.72134167     0.14500
C2865       C  0.78451495  0.33859286  0.60223513    -0.05500
C2866       C  0.78341602  0.33578045  0.63656750    -0.05500
C2867       C  0.76695303  0.33630362  0.65294866    -0.23600
C2868       C  0.75123213  0.33951423  0.63527260     0.18600
C2869       C  0.75220880  0.34239040  0.60072949     0.15800
C2870       C  0.76882721  0.34202198  0.58449392    -0.18700
C2871       C  0.73650130  0.34528078  0.58288816    -0.20500
C2872       C  0.71996504  0.34486609  0.59888060    -0.13000
C2873       C  0.71880327  0.34186218  0.63310641     0.03600
C2874       C  0.73452985  0.33951263  0.65135362    -0.25200
H2875       H  0.79532408  0.33311532  0.65082024     0.08700
H2876       H  0.76650653  0.33401087  0.67937261     0.12300
H2877       H  0.76951283  0.34414140  0.55799755     0.12200
H2878       H  0.73697175  0.34753762  0.55642894     0.12000
H2879       H  0.70799753  0.34678387  0.58437469     0.12500
H2880       H  0.73372042  0.33703898  0.67771907     0.14500
loop_ 
_geom_bond_atom_site_label_1 
_geom_bond_atom_site_label_2 
_geom_bond_distance 
_geom_bond_site_symmetry_2 
_ccdc_geom_bond_type 
In1           O3   2.250       .  S
In1           O4   2.219       .  S
In1          O12   2.219       .  S
In1           O6   2.267       .  S
In1           O8   2.258       .  S
In1           O9   2.229       .  S
In1          O10   2.225       .  S
In1          O13   2.235       .  S
C2            O8   1.266       .  A
C2           O10   1.259       .  A
C2         C1425   1.476       .  S
O3           C11   1.263       .  A
O4           C11   1.260       .  A
C5           O12   1.257       .  A
C5            O6   1.263       .  A
C5         C2833   1.476   1_554  S
C7            O9   1.260       .  A
C7           O13   1.261       .  A
C7         C1409   1.467       .  S
C11        C1385   1.473       .  S
In14         O16   2.247       .  S
In14         O17   2.241       .  S
In14         O25   2.227       .  S
In14         O19   2.276       .  S
In14         O21   2.274       .  S
In14         O22   2.233       .  S
In14         O23   2.221       .  S
In14         O26   2.227       .  S
C15          O21   1.267       .  A
C15          O23   1.258       .  A
C15        C1433   1.478       .  S
O16          C24   1.263       .  A
O17          C24   1.261       .  A
C18          O25   1.259       .  A
C18          O19   1.265       .  A
C18        C1345   1.482       .  S
C20          O22   1.263       .  A
C20          O26   1.262       .  A
C20        C1361   1.471       .  S
C24        C1329   1.479       .  S
In27         O29   2.265       .  S
In27         O30   2.240       .  S
In27         O38   2.243       .  S
In27         O32   2.263       .  S
In27         O34   2.247       .  S
In27         O35   2.254       .  S
In27         O36   2.248       .  S
In27         O39   2.242       .  S
C28          O34   1.262       .  A
C28          O36   1.262       .  A
C28        C1313   1.479       .  S
O29          C37   1.261       .  A
O30          C37   1.259       .  A
C31          O38   1.259       .  A
C31          O32   1.260       .  A
C31        C1305   1.480       .  S
C33          O35   1.260       .  A
C33          O39   1.259       .  A
C33        C1281   1.474       .  S
C37        C1273   1.479       .  S
In40         O42   2.250       .  S
In40         O43   2.228       .  S
In40         O51   2.259       .  S
In40         O45   2.240       .  S
In40         O47   2.264       .  S
In40         O48   2.233       .  S
In40         O49   2.230       .  S
In40         O52   2.235       .  S
C41          O47   1.264       .  A
C41          O49   1.259       .  A
C41        C1321   1.478       .  S
O42          C50   1.263       .  A
O43          C50   1.261       .  A
C44          O51   1.263       .  A
C44          O45   1.259       .  A
C44        C1401   1.481       .  S
C46          O48   1.261       .  A
C46          O52   1.260       .  A
C46        C1417   1.470       .  S
C50        C1249   1.475       .  S
In53         O55   2.255       .  S
In53         O56   2.233       .  S
In53         O64   2.247       .  S
In53         O58   2.277       .  S
In53         O60   2.247       .  S
In53         O61   2.231       .  S
In53         O62   2.269       .  S
In53         O65   2.235       .  S
C54          O60   1.256       .  A
C54          O62   1.264       .  A
C54        C1233   1.482       .  S
O55          C63   1.262       .  A
O56          C63   1.259       .  A
C57          O64   1.259       .  A
C57          O58   1.263       .  A
C57        C1225   1.488       .  S
C59          O61   1.261       .  A
C59          O65   1.264       .  A
C59        C2641   1.472       .  S
C63        C1185   1.477       .  S
In66         O68   2.263       .  S
In66         O69   2.234       .  S
In66         O77   2.252       .  S
In66         O71   2.273       .  S
In66         O73   2.280       .  S
In66         O74   2.238       .  S
In66         O75   2.220       .  S
In66         O78   2.226       .  S
C67          O73   1.266       .  A
C67          O75   1.257       .  A
C67        C1241   1.481       .  S
O68          C76   1.263       .  A
O69          C76   1.258       .  A
C70          O77   1.258       .  A
C70          O71   1.260       .  A
C70        C1353   1.484       .  S
C72          O74   1.261       .  A
C72          O78   1.261       .  A
C72        C2809   1.468       .  S
C76        C1169   1.478       .  S
In79         O81   2.249       .  S
In79         O82   2.244       .  S
In79         O90   2.233       .  S
In79         O84   2.277       .  S
In79         O86   2.271       .  S
In79         O87   2.234       .  S
In79         O88   2.234       .  S
In79         O91   2.234       .  S
C80          O86   1.265       .  A
C80          O88   1.257       .  A
C80        C1153   1.482       .  S
O81          C89   1.263       .  A
O82          C89   1.262       .  A
C83          O90   1.261       .  A
C83          O84   1.265       .  A
C83        C2737   1.485       .  S
C85          O87   1.263       .  A
C85          O91   1.262       .  A
C85        C1289   1.470       .  S
C89        C1145   1.481       .  S
In92         O94   2.269       .  S
In92         O95   2.226       .  S
In92        O103   2.249       .  S
In92         O97   2.287       .  S
In92         O99   2.281       .  S
In92        O100   2.247       .  S
In92        O101   2.224       .  S
In92        O104   2.231       .  S
C93          O99   1.267       .  A
C93         O101   1.258       .  A
C93        C1161   1.483       .  S
O94         C102   1.264       .  A
O95         C102   1.260       .  A
C96         O103   1.259       .  A
C96          O97   1.262       .  A
C96        C1217   1.490       .  S
C98         O100   1.261       .  A
C98         O104   1.261       .  A
C98        C1209   1.473       .  S
C102       C1121   1.481       .  S
In105       O107   2.255       .  S
In105       O108   2.232       .  S
In105       O116   2.253       .  S
In105       O110   2.235       .  S
In105       O112   2.255       .  S
In105       O113   2.225       .  S
In105       O114   2.245       .  S
In105       O117   2.259       .  S
C106        O112   1.261       .  A
C106        O114   1.258       .  A
C106       C1105   1.476       .  S
O107        C115   1.263       .  A
O108        C115   1.259       .  A
C109        O116   1.262       .  A
C109        O110   1.259       .  A
C109       C2537   1.476   1_554  S
C111        O113   1.258       .  A
C111        O117   1.261       .  A
C111       C1377   1.473       .  S
C115       C1081   1.476       .  S
In118       O120   2.255       .  S
In118       O121   2.245       .  S
In118       O129   2.252       .  S
In118       O123   2.266       .  S
In118       O125   2.257       .  S
In118       O126   2.251       .  S
In118       O127   2.229       .  S
In118       O130   2.244       .  S
C119        O125   1.263       .  A
C119        O127   1.259       .  A
C119       C1113   1.476       .  S
O120        C128   1.260       .  A
O121        C128   1.261       .  A
C122        O129   1.258       .  A
C122        O123   1.259       .  A
C122       C1057   1.481       .  S
C124        O126   1.262       .  A
C124        O130   1.262       .  A
C124       C1337   1.480       .  S
C128       C1041   1.478       .  S
In131       O133   2.251       .  S
In131       O134   2.241       .  S
In131       O142   2.225       .  S
In131       O136   2.261       .  S
In131       O138   2.250       .  S
In131       O139   2.239       .  S
In131       O140   2.227       .  S
In131       O143   2.249       .  S
C132        O138   1.260       .  A
C132        O140   1.260       .  A
C132       C1025   1.473       .  S
O133        C141   1.261       .  A
O134        C141   1.260       .  A
C135        O142   1.258       .  A
C135        O136   1.261       .  A
C135       C1089   1.474       .  S
C137        O139   1.259       .  A
C137        O143   1.260       .  A
C137       C1009   1.474       .  S
C141       C1073   1.476       .  S
In144       O146   2.242       .  S
In144       O147   2.250       .  S
In144       O155   2.231       .  S
In144       O149   2.265       .  S
In144       O151   2.244       .  S
In144       O152   2.235       .  S
In144       O153   2.225       .  S
In144       O156   2.256       .  S
C145        O151   1.265       .  A
C145        O153   1.260       .  A
C145       C1033   1.473       .  S
O146        C154   1.259       .  A
O147        C154   1.261       .  A
C148        O155   1.259       .  A
C148        O149   1.262       .  A
C148        C993   1.478       .  S
C150        O152   1.261       .  A
C150        O156   1.263       .  A
C150        C969   1.479       .  S
C154        C985   1.476       .  S
In157       O159   2.249       .  S
In157       O160   2.247       .  S
In157       O168   2.272       .  S
In157       O162   2.258       .  S
In157       O164   2.273       .  S
In157       O165   2.250       .  S
In157       O166   2.246       .  S
In157       O169   2.264       .  S
C158        O164   1.264       .  A
C158        O166   1.260       .  A
C158        C953   1.486       .  S
O159        C167   1.261       .  A
O160        C167   1.260       .  A
C161        O168   1.260       .  A
C161        O162   1.258       .  A
C161       C1065   1.484       .  S
C163        O165   1.258       .  A
C163        O169   1.262       .  A
C163        C937   1.482       .  S
C167       C2489   1.478       .  S
In170       O172   2.233       .  S
In170       O173   2.245       .  S
In170       O181   2.251       .  S
In170       O175   2.259       .  S
In170       O177   2.242       .  S
In170       O178   2.235       .  S
In170       O179   2.258       .  S
In170       O182   2.264       .  S
C171        O177   1.260       .  A
C171        O179   1.264       .  A
C171        C945   1.480       .  S
O172        C180   1.261       .  A
O173        C180   1.262       .  A
C174        O181   1.259       .  A
C174        O175   1.261       .  A
C174        C921   1.482       .  S
C176        O178   1.260       .  A
C176        O182   1.262       .  A
C176        C881   1.480       .  S
C180       C2345   1.473   1_554  S
In183       O185   2.244       .  S
In183       O186   2.244       .  S
In183       O194   2.253       .  S
In183       O188   2.253       .  S
In183       O190   2.268       .  S
In183       O191   2.237       .  S
In183       O192   2.214       .  S
In183       O195   2.263       .  S
C184        O190   1.264       .  A
C184        O192   1.258       .  A
C184        C873   1.475       .  S
O185        C193   1.260       .  A
O186        C193   1.261       .  A
C187        O194   1.258       .  A
C187        O188   1.258       .  A
C187       C2441   1.478       .  S
C189        O191   1.260       .  A
C189        O195   1.264       .  A
C189       C1137   1.481       .  S
C193        C977   1.475       .  S
In196       O198   2.239       .  S
In196       O199   2.244       .  S
In196       O207   2.252       .  S
In196       O201   2.269       .  S
In196       O203   2.262       .  S
In196       O204   2.234       .  S
In196       O205   2.221       .  S
In196       O208   2.264       .  S
C197        O203   1.265       .  A
C197        O205   1.257       .  A
C197        C865   1.474       .  S
O198        C206   1.261       .  A
O199        C206   1.262       .  A
C200        O207   1.259       .  A
C200        O201   1.261       .  A
C200        C913   1.483       .  S
C202        O204   1.260       .  A
C202        O208   1.262       .  A
C202       C1129   1.480       .  S
C206        C897   1.476       .  S
In209       O211   2.227       .  S
In209       O212   2.247       .  S
In209       O220   2.256       .  S
In209       O214   2.247       .  S
In209       O216   2.262       .  S
In209       O217   2.223       .  S
In209       O218   2.235       .  S
In209       O221   2.257       .  S
C210        O216   1.264       .  A
C210        O218   1.260       .  A
C210        C849   1.479       .  S
O211        C219   1.261       .  A
O212        C219   1.260       .  A
C213        O220   1.260       .  A
C213        O214   1.257       .  A
C213        C825   1.477       .  S
C215        O217   1.259       .  A
C215        O221   1.262       .  A
C215       C1257   1.474       .  S
C219        C833   1.471       .  S
In222       O224   2.234       .  S
In222       O225   2.249       .  S
In222       O233   2.250       .  S
In222       O227   2.264       .  S
In222       O229   2.247       .  S
In222       O230   2.246       .  S
In222       O231   2.256       .  S
In222       O234   2.260       .  S
C223        O229   1.259       .  A
C223        O231   1.264       .  A
C223        C857   1.480       .  S
O224        C232   1.261       .  A
O225        C232   1.263       .  A
C226        O233   1.260       .  A
C226        O227   1.262       .  A
C226        C801   1.485       .  S
C228        O230   1.261       .  A
C228        O234   1.262       .  A
C228       C1265   1.482       .  S
C232        C793   1.476       .  S
In235       O237   2.216       .  S
In235       O238   2.240       .  S
In235       O246   2.224       .  S
In235       O240   2.259       .  S
In235       O242   2.256       .  S
In235       O243   2.240       .  S
In235       O244   2.221       .  S
In235       O247   2.234       .  S
C236        O242   1.267       .  A
C236        O244   1.260       .  A
C236        C777   1.476       .  S
O237        C245   1.262       .  A
O238        C245   1.265       .  A
C239        O246   1.260       .  A
C239        O240   1.265       .  A
C239       C2257   1.479       .  S
C241        O243   1.263       .  A
C241        O247   1.262       .  A
C241        C761   1.475       .  S
C245        C841   1.471       .  S
In248       O250   2.222       .  S
In248       O251   2.248       .  S
In248       O259   2.239       .  S
In248       O253   2.259       .  S
In248       O255   2.261       .  S
In248       O256   2.228       .  S
In248       O257   2.224       .  S
In248       O260   2.264       .  S
C249        O255   1.264       .  A
C249        O257   1.258       .  A
C249        C769   1.475       .  S
O250        C258   1.260       .  A
O251        C258   1.262       .  A
C252        O259   1.259       .  A
C252        O253   1.259       .  A
C252        C737   1.477       .  S
C254        O256   1.258       .  A
C254        O260   1.262       .  A
C254        C705   1.476       .  S
C258        C729   1.470       .  S
In261       O263   2.240       .  S
In261       O264   2.243       .  S
In261       O272   2.246       .  S
In261       O266   2.279       .  S
In261       O268   2.263       .  S
In261       O269   2.246       .  S
In261       O270   2.247       .  S
In261       O273   2.236       .  S
C262        O268   1.264       .  A
C262        O270   1.259       .  A
C262        C697   1.482       .  S
O263        C271   1.261       .  A
O264        C271   1.261       .  A
C265        O272   1.257       .  A
C265        O266   1.261       .  A
C265       C2249   1.484       .  S
C267        O269   1.261       .  A
C267        O273   1.262       .  A
C267        C673   1.475       .  S
C271        C785   1.475       .  S
In274       O276   2.232       .  S
In274       O277   2.253       .  S
In274       O285   2.245       .  S
In274       O279   2.278       .  S
In274       O281   2.269       .  S
In274       O282   2.243       .  S
In274       O283   2.239       .  S
In274       O286   2.244       .  S
C275        O281   1.263       .  A
C275        O283   1.258       .  A
C275        C689   1.481       .  S
O276        C284   1.262       .  A
O277        C284   1.262       .  A
C278        O285   1.260       .  A
C278        O279   1.262       .  A
C278        C649   1.487       .  S
C280        O282   1.261       .  A
C280        O286   1.262       .  A
C280        C633   1.476       .  S
C284        C665   1.477       .  S
In287       O289   2.237       .  S
In287       O290   2.233       .  S
In287       O298   2.228       .  S
In287       O292   2.273       .  S
In287       O294   2.262       .  S
In287       O295   2.254       .  S
In287       O296   2.235       .  S
In287       O299   2.242       .  S
C288        O294   1.265       .  A
C288        O296   1.259       .  A
C288        C609   1.480       .  S
O289        C297   1.261       .  A
O290        C297   1.262       .  A
C291        O298   1.258       .  A
C291        O292   1.263       .  A
C291        C745   1.478       .  S
C293        O295   1.262       .  A
C293        O299   1.262       .  A
C293       C1177   1.480       .  S
C297       C2161   1.471       .  S
In300       O302   2.220       .  S
In300       O303   2.255       .  S
In300       O311   2.249       .  S
In300       O305   2.273       .  S
In300       O307   2.262       .  S
In300       O308   2.245       .  S
In300       O309   2.254       .  S
In300       O312   2.248       .  S
C301        O307   1.264       .  A
C301        O309   1.260       .  A
C301        C617   1.485       .  S
O302        C310   1.259       .  A
O303        C310   1.260       .  A
C304        O311   1.258       .  A
C304        O305   1.261       .  A
C304        C641   1.484       .  S
C306        O308   1.261       .  A
C306        O312   1.262       .  A
C306       C1193   1.478       .  S
C310       C2097   1.471   1_554  S
In313       O315   2.237       .  S
In313       O316   2.235       .  S
In313       O324   2.245       .  S
In313       O318   2.269       .  S
In313       O320   2.265       .  S
In313       O321   2.239       .  S
In313       O322   2.239       .  S
In313       O325   2.234       .  S
C314        O320   1.264       .  A
C314        O322   1.258       .  A
C314        C601   1.478       .  S
O315        C323   1.264       .  A
O316        C323   1.262       .  A
C317        O324   1.259       .  A
C317        O318   1.263       .  A
C317       C2025   1.484       .  S
C319        O321   1.260       .  A
C319        O325   1.260       .  A
C319        C561   1.471       .  S
C323        C681   1.474       .  S
In326       O328   2.229       .  S
In326       O329   2.248       .  S
In326       O337   2.266       .  S
In326       O331   2.232       .  S
In326       O333   2.242       .  S
In326       O334   2.247       .  S
In326       O335   2.256       .  S
In326       O338   2.227       .  S
C327        O333   1.259       .  A
C327        O335   1.261       .  A
C327        C593   1.478       .  S
O328        C336   1.261       .  A
O329        C336   1.261       .  A
C330        O337   1.262       .  A
C330        O331   1.257       .  A
C330        C553   1.478       .  S
C332        O334   1.260       .  A
C332        O338   1.259       .  A
C332        C529   1.469       .  S
C336        C625   1.474       .  S
In339       O341   2.253       .  S
In339       O342   2.240       .  S
In339       O350   2.244       .  S
In339       O344   2.255       .  S
In339       O346   2.261       .  S
In339       O347   2.235       .  S
In339       O348   2.246       .  S
In339       O351   2.240       .  S
C340        O346   1.259       .  A
C340        O348   1.261       .  A
C340        C513   1.480       .  S
O341        C349   1.260       .  A
O342        C349   1.260       .  A
C343        O350   1.260       .  A
C343        O344   1.261       .  A
C343        C545   1.478       .  S
C345        O347   1.261       .  A
C345        O351   1.262       .  A
C345       C1977   1.471       .  S
C349        C889   1.477       .  S
In352       O354   2.254       .  S
In352       O355   2.246       .  S
In352       O363   2.275       .  S
In352       O357   2.250       .  S
In352       O359   2.271       .  S
In352       O360   2.249       .  S
In352       O361   2.236       .  S
In352       O364   2.236       .  S
C353        O359   1.263       .  A
C353        O361   1.258       .  A
C353        C521   1.481       .  S
O354        C362   1.263       .  A
O355        C362   1.261       .  A
C356        O363   1.260       .  A
C356        O357   1.258       .  A
C356        C505   1.485       .  S
C358        O360   1.261       .  A
C358        O364   1.260       .  A
C358       C1929   1.475       .  S
C362        C929   1.482       .  S
In365       O367   2.256       .  S
In365       O368   2.229       .  S
In365       O376   2.251       .  S
In365       O370   2.273       .  S
In365       O372   2.264       .  S
In365       O373   2.233       .  S
In365       O374   2.240       .  S
In365       O377   2.229       .  S
C366        O372   1.266       .  A
C366        O374   1.259       .  A
C366        C473   1.483       .  S
O367        C375   1.263       .  A
O368        C375   1.258       .  A
C369        O376   1.259       .  A
C369        O370   1.263       .  A
C369       C1889   1.486   1_554  S
C371        O373   1.260       .  A
C371        O377   1.261       .  A
C371        C433   1.469       .  S
C375        C753   1.476       .  S
In378       O380   2.254       .  S
In378       O381   2.235       .  S
In378       O389   2.248       .  S
In378       O383   2.271       .  S
In378       O385   2.287       .  S
In378       O386   2.248       .  S
In378       O387   2.223       .  S
In378       O390   2.229       .  S
C379        O385   1.265       .  A
C379        O387   1.256       .  A
C379        C465   1.479       .  S
O380        C388   1.261       .  A
O381        C388   1.260       .  A
C382        O389   1.259       .  A
C382        O383   1.263       .  A
C382        C497   1.486       .  S
C384        O386   1.264       .  A
C384        O390   1.263       .  A
C384        C481   1.476       .  S
C388        C713   1.477       .  S
In391       O393   2.256       .  S
In391       O394   2.238       .  S
In391       O402   2.255       .  S
In391       O396   2.271       .  S
In391       O398   2.241       .  S
In391       O399   2.241       .  S
In391       O400   2.258       .  S
In391       O403   2.228       .  S
C392        O398   1.258       .  A
C392        O400   1.263       .  A
C392        C417   1.476       .  S
O393        C401   1.263       .  A
O394        C401   1.261       .  A
C395        O402   1.257       .  A
C395        O396   1.258       .  A
C395        C577   1.482       .  S
C397        O399   1.262       .  A
C397        O403   1.261       .  A
C397        C569   1.471       .  S
C401        C961   1.479       .  S
In404       O406   2.237       .  S
In404       O407   2.235       .  S
In404       O415   2.264       .  S
In404       O409   2.231       .  S
In404       O411   2.269       .  S
In404       O412   2.246       .  S
In404       O413   2.223       .  S
In404       O416   2.224       .  S
C405        O411   1.264       .  A
C405        O413   1.258       .  A
C405        C425   1.479       .  S
O406        C414   1.262       .  A
O407        C414   1.262       .  A
C408        O415   1.262       .  A
C408        O409   1.258       .  A
C408        C457   1.476       .  S
C410        O412   1.261       .  A
C410        O416   1.260       .  A
C410        C441   1.469       .  S
C414       C1017   1.473       .  S
C417        C418   1.402       .  A
C417        C422   1.409       .  A
C418        C419   1.396   1_565  A
C418        H427   1.084       .  S
C419        C420   1.402       .  A
C419        H428   1.084       .  S
C420        C426   1.401       .  A
C420        C421   1.413   1_545  A
C421        C423   1.405       .  A
C421        C422   1.406       .  A
C422        H429   1.084       .  S
C423        C424   1.402   1_565  A
C423        H430   1.083       .  S
C424        C425   1.405       .  A
C424        H431   1.082       .  S
C425        C426   1.406       .  A
C426        H432   1.085       .  S
C433        C434   1.403       .  A
C433        C438   1.405       .  A
C434        C435   1.392       .  A
C434        H443   1.083       .  S
C435        C436   1.400       .  A
C435        H444   1.084       .  S
C436        C442   1.397       .  A
C436        C437   1.414       .  A
C437        C439   1.403       .  A
C437        C438   1.402       .  A
C438        H445   1.083       .  S
C439        C440   1.398       .  A
C439        H446   1.083       .  S
C440        C441   1.404       .  A
C440        H447   1.083       .  S
C441        C442   1.402       .  A
C442        H448   1.085       .  S
C449       C1809   1.480       .  S
C449        C450   1.405       .  A
C449        C454   1.405       .  A
C450        C451   1.400       .  A
C450        H459   1.083       .  S
C451        C452   1.403       .  A
C451        H460   1.084       .  S
C452        C458   1.407       .  A
C452        C453   1.414       .  A
C453        C455   1.401       .  A
C453        C454   1.403       .  A
C454       H1901   1.085       .  S
C455        C456   1.395       .  A
C455        H462   1.084       .  S
C456        C457   1.405       .  A
C456        H463   1.083       .  S
C457        C458   1.406       .  A
C458        H464   1.084       .  S
H461       C1894   1.084       .  S
C465        C466   1.405       .  A
C465        C470   1.406       .  A
C466        C467   1.394       .  A
C466        H475   1.084       .  S
C467        C468   1.399       .  A
C467        H476   1.085       .  S
C468        C474   1.405       .  A
C468        C469   1.416       .  A
C469        C471   1.403       .  A
C469        C470   1.411       .  A
C470        H477   1.084       .  S
C471        C472   1.401       .  A
C471        H478   1.083       .  S
C472        C473   1.408       .  A
C472        H479   1.082       .  S
C473        C474   1.403       .  A
C474        H480   1.086       .  S
C481        C482   1.405       .  A
C481        C486   1.406       .  A
C482        C483   1.395       .  A
C482        H491   1.083       .  S
C483        C484   1.400       .  A
C483        H492   1.085       .  S
C484        C490   1.402       .  A
C484        C485   1.415       .  A
C485        C487   1.402       .  A
C485        C486   1.405       .  A
C486        H493   1.084       .  S
C487        C488   1.398       .  A
C487        H494   1.084       .  S
C488        C489   1.405       .  A
C488        H495   1.083       .  S
C489       C1798   1.476   1_554  S
C489        C490   1.404       .  A
C490        H496   1.085       .  S
C497        C498   1.406       .  A
C497        C502   1.407       .  A
C498        C499   1.402       .  A
C498        H507   1.083       .  S
C499        C500   1.405       .  A
C499        H508   1.084       .  S
C500        C506   1.411       .  A
C500        C501   1.414       .  A
C501        C503   1.401       .  A
C501        C502   1.406       .  A
C502        H509   1.084       .  S
C503        C504   1.397       .  A
C503        H510   1.084       .  S
C504        C505   1.405       .  A
C504        H511   1.083       .  S
C505        C506   1.410       .  A
C506        H512   1.084       .  S
C513        C514   1.404       .  A
C513        C518   1.409       .  A
C514       C1955   1.395   1_565  A
C514        H523   1.084       .  S
C515        C516   1.401       .  A
C515       C1954   1.395   1_545  A
C515        H524   1.084       .  S
C516        C522   1.402       .  A
C516       C1957   1.413   1_545  A
C517        C519   1.405   1_565  A
C517        C518   1.409   1_556  A
C517       C1956   1.413   1_566  A
C518        H525   1.083   1_554  S
C519       C1960   1.402       .  A
C519        H526   1.083   1_545  S
C520        C521   1.405       .  A
C520       C1959   1.402       .  A
C520        H527   1.083       .  S
C521        C522   1.406       .  A
C522        H528   1.084       .  S
C529        C530   1.404       .  A
C529        C534   1.402       .  A
C530        C531   1.398       .  A
C530        H539   1.083       .  S
C531        C532   1.403       .  A
C531        H540   1.083       .  S
C532        C538   1.402       .  A
C532        C533   1.414       .  A
C533        C535   1.400       .  A
C533        C534   1.397       .  A
C534        H541   1.084       .  S
C535        C536   1.393       .  A
C535        H542   1.083       .  S
C536        C537   1.404       .  A
C536       H1983   1.084       .  S
C537       C1785   1.471       .  S
C537        C538   1.405       .  A
C538        H544   1.084       .  S
H543       C1976   1.083       .  S
C545        C546   1.405       .  A
C545        C550   1.405       .  A
C546        C547   1.399       .  A
C546        H555   1.083       .  S
C547        C548   1.403       .  A
C547        H556   1.084       .  S
C548        C554   1.406       .  A
C548        C549   1.414       .  A
C549        C551   1.400       .  A
C549        C550   1.403       .  A
C550        H557   1.085       .  S
C551        C552   1.395       .  A
C551        H558   1.084       .  S
C552        C553   1.406       .  A
C552        H559   1.083       .  S
C553        C554   1.406       .  A
C554        H560   1.085       .  S
C561        C562   1.404       .  A
C561        C566   1.405       .  A
C562        C563   1.394       .  A
C562        H571   1.083       .  S
C563        C564   1.401       .  A
C563        H572   1.084       .  S
C564        C570   1.399       .  A
C564        C565   1.414       .  A
C565        C567   1.402       .  A
C565        C566   1.401       .  A
C566        H573   1.084       .  S
C567        C568   1.397       .  A
C567        H574   1.083       .  S
C568        C569   1.404       .  A
C568        H575   1.083       .  S
C569        C570   1.403       .  A
C570        H576   1.084       .  S
C577        C578   1.405       .  A
C577        C582   1.409       .  A
C578        C579   1.397       .  A
C578        H587   1.083       .  S
C579        C580   1.402       .  A
C579        H588   1.083       .  S
C580        C586   1.404       .  A
C580        C581   1.414       .  A
C581        C583   1.405       .  A
C581        C582   1.409       .  A
C582        H589   1.084       .  S
C583       C2024   1.401       .  A
C583        H590   1.084       .  S
C584       C2023   1.401       .  A
C584       C2025   1.405       .  A
C584        H591   1.083       .  S
C585       C1757   1.482   1_554  S
C585        C586   1.407       .  A
C585       C2024   1.405       .  A
C586        H592   1.084   1_554  S
C593        C594   1.405       .  A
C593        C598   1.405       .  A
C594        C595   1.399       .  A
C594        H603   1.083       .  S
C595        C596   1.403       .  A
C595        H604   1.085       .  S
C596        C602   1.406       .  A
C596        C597   1.414       .  A
C597        C599   1.401       .  A
C597        C598   1.403       .  A
C598        H605   1.085       .  S
C599        C600   1.396       .  A
C599        H606   1.084       .  S
C600        C601   1.406       .  A
C600        H607   1.082       .  S
C601        C602   1.406       .  A
C602        H608   1.085       .  S
C609        C610   1.404       .  A
C609        C614   1.407       .  A
C610        C611   1.401       .  A
C610        H619   1.083       .  S
C611        C612   1.405       .  A
C611        H620   1.083       .  S
C612       C2058   1.407       .  A
C612       C2053   1.413       .  A
C613        C615   1.402       .  A
C613       C2052   1.414   1_554  A
C613       C2054   1.404   1_554  A
C614       C2053   1.404       .  A
C614       H2061   1.084       .  S
C615        C616   1.398       .  A
C615        H622   1.085       .  S
C616        C617   1.404       .  A
C616        H623   1.082       .  S
C617        C618   1.410   1_554  A
C618       C2052   1.409       .  A
C618       H2064   1.093       .  S
H621       C2054   1.091   1_554  S
H624       C2058   1.084       .  S
C625        C626   1.405       .  A
C625        C630   1.404       .  A
C626        C627   1.399       .  A
C626        H635   1.082       .  S
C627        C628   1.403       .  A
C627        H636   1.084       .  S
C628        C634   1.404       .  A
C628        C629   1.414       .  A
C629        C631   1.401       .  A
C629        C630   1.400       .  A
C630        H637   1.084       .  S
C631        C632   1.395       .  A
C631        H638   1.084       .  S
C632        C633   1.404       .  A
C632        H639   1.084       .  S
C633        C634   1.407       .  A
C634        H640   1.085       .  S
C641        C642   1.406       .  A
C641        C646   1.406       .  A
C642        C643   1.404       .  A
C642        H651   1.082       .  S
C643        C644   1.406       .  A
C643        H652   1.083       .  S
C644        C650   1.413       .  A
C644        C645   1.414       .  A
C645        C647   1.400       .  A
C645        C646   1.405       .  A
C646        H653   1.084       .  S
C647        C648   1.396       .  A
C647        H654   1.083       .  S
C648        C649   1.405       .  A
C648        H655   1.084       .  S
C649        C650   1.411       .  A
C650        H656   1.082       .  S
C657       C1750   1.478       .  S
C657        C658   1.406       .  A
C657        C662   1.403       .  A
C658        C659   1.401       .  A
C658        H667   1.083       .  S
C659        C660   1.404       .  A
C659        H668   1.082       .  S
C660        C666   1.407       .  A
C660        C661   1.414       .  A
C661        C663   1.400       .  A
C661        C662   1.401       .  A
C662        H669   1.085       .  S
C663        C664   1.394       .  A
C663        H670   1.084       .  S
C664        C665   1.404       .  A
C664        H671   1.084       .  S
C665        C666   1.408       .  A
C666        H672   1.083       .  S
C673        C674   1.405       .  A
C673        C678   1.404       .  A
C674        C675   1.399       .  A
C674        H683   1.082       .  S
C675        C676   1.403       .  A
C675        H684   1.083       .  S
C676        C682   1.404       .  A
C676        C677   1.414       .  A
C677        C679   1.401       .  A
C677        C678   1.401       .  A
C678        H685   1.085       .  S
C679        C680   1.395       .  A
C679        H686   1.085       .  S
C680        C681   1.404       .  A
C680        H687   1.083       .  S
C681        C682   1.407       .  A
C682        H688   1.084       .  S
C689        C690   1.404       .  A
C689        C694   1.408       .  A
C690        C691   1.400       .  A
C690        H699   1.083       .  S
C691        C692   1.404       .  A
C691        H700   1.083       .  S
C692        C698   1.407       .  A
C692        C693   1.413       .  A
C693        C695   1.403       .  A
C693        C694   1.405       .  A
C694        H701   1.084       .  S
C695        C696   1.399       .  A
C695        H702   1.084       .  S
C696        C697   1.404       .  A
C696        H703   1.083       .  S
C697        C698   1.409       .  A
C698        H704   1.084       .  S
C705        C706   1.405       .  A
C705        C710   1.406       .  A
C706        C707   1.394       .  A
C706        H715   1.083       .  S
C707        C708   1.400       .  A
C707        H716   1.083       .  S
C708        C714   1.401       .  A
C708        C709   1.414       .  A
C709        C711   1.403       .  A
C709        C710   1.406       .  A
C710        H717   1.084       .  S
C711        C712   1.400       .  A
C711        H718   1.083       .  S
C712        C713   1.405       .  A
C712        H719   1.083       .  S
C713        C714   1.404       .  A
C714        H720   1.084       .  S
C721       C1737   1.473   1_554  S
C721        C722   1.404       .  A
C721        C726   1.406       .  A
C722        C723   1.394       .  A
C722        H731   1.083   1_554  S
C723        C724   1.401       .  A
C723        H732   1.084       .  S
C724        C730   1.398       .  A
C724        C725   1.413       .  A
C725        C727   1.403       .  A
C725        C726   1.402       .  A
C726       H2173   1.085       .  S
C727        C728   1.398       .  A
C727        H734   1.084       .  S
C728        C729   1.404       .  A
C728        H735   1.082       .  S
C729        C730   1.403       .  A
C730        H736   1.085       .  S
H733       C2166   1.085       .  S
C737        C738   1.406       .  A
C737        C742   1.403       .  A
C738        C739   1.401       .  A
C738        H747   1.082       .  S
C739        C740   1.404       .  A
C739        H748   1.084       .  S
C740        C746   1.409       .  A
C740        C741   1.415       .  A
C741        C743   1.399       .  A
C741        C742   1.401       .  A
C742        H749   1.085       .  S
C743        C744   1.393       .  A
C743        H750   1.084       .  S
C744        C745   1.405       .  A
C744        H751   1.084       .  S
C745        C746   1.408       .  A
C746        H752   1.084       .  S
C753        C754   1.406       .  A
C753        C758   1.404       .  A
C754        C755   1.396       .  A
C754        H763   1.083       .  S
C755        C756   1.401       .  A
C755        H764   1.083       .  S
C756        C762   1.403       .  A
C756        C757   1.415       .  A
C757        C759   1.401       .  A
C757        C758   1.404       .  A
C758        H765   1.084       .  S
C759        C760   1.396       .  A
C759        H766   1.084       .  S
C760        C761   1.405       .  A
C760        H767   1.084       .  S
C761        C762   1.404       .  A
C762        H768   1.084       .  S
C769        C770   1.406       .  A
C769        C774   1.403       .  A
C770        C771   1.395       .  A
C770        H779   1.083       .  S
C771        C772   1.400       .  A
C771        H780   1.084       .  S
C772        C778   1.404       .  A
C772        C773   1.416       .  A
C773        C775   1.400       .  A
C773        C774   1.404       .  A
C774        H781   1.085       .  S
C775        C776   1.396       .  A
C775        H782   1.084       .  S
C776        C777   1.406       .  A
C776        H783   1.083       .  S
C777        C778   1.403       .  A
C778        H784   1.085       .  S
C785        C786   1.405       .  A
C785        C790   1.404       .  A
C786        C787   1.397       .  A
C786        H795   1.083       .  S
C787        C788   1.402       .  A
C787        H796   1.084       .  S
C788        C794   1.404       .  A
C788        C789   1.414       .  A
C789        C791   1.401       .  A
C789        C790   1.402       .  A
C790        H797   1.085       .  S
C791        C792   1.396       .  A
C791        H798   1.084       .  S
C792        C793   1.405       .  A
C792        H799   1.083       .  S
C793        C794   1.405       .  A
C794        H800   1.085       .  S
C801        C802   1.406       .  A
C801        C806   1.406       .  A
C802        C803   1.402       .  A
C802        H811   1.083       .  S
C803        C804   1.404       .  A
C803        H812   1.083       .  S
C804        C810   1.411       .  A
C804        C805   1.414       .  A
C805        C807   1.401       .  A
C805        C806   1.406       .  A
C806        H813   1.084       .  S
C807        C808   1.397       .  A
C807        H814   1.083       .  S
C808        C809   1.406       .  A
C808       H2255   1.083       .  S
C809       C1705   1.485   1_554  S
C809        C810   1.409       .  A
C810        H816   1.084       .  S
H815       C2248   1.083       .  S
C817       C1679   1.479       .  S
C817        C822   1.405       .  A
C817       C2258   1.406       .  A
C818       C2257   1.406   1_556  A
C818       C2259   1.395       .  A
C818        H827   1.083   1_556  S
C819        C820   1.402       .  A
C819       C2258   1.397       .  A
C819        H828   1.083       .  S
C820        C826   1.404       .  A
C820        C821   1.414       .  A
C821        C823   1.402       .  A
C821        C822   1.405       .  A
C822        H829   1.085       .  S
C823        C824   1.398       .  A
C823        H830   1.084       .  S
C824        C825   1.404       .  A
C824        H831   1.084       .  S
C825        C826   1.407       .  A
C826        H832   1.083       .  S
C833        C834   1.405       .  A
C833        C838   1.401       .  A
C834        C835   1.399       .  A
C834        H843   1.083       .  S
C835        C836   1.403       .  A
C835        H844   1.083       .  S
C836        C842   1.403       .  A
C836        C837   1.414       .  A
C837        C839   1.399       .  A
C837        C838   1.397       .  A
C838        H845   1.085       .  S
C839        C840   1.392       .  A
C839        H846   1.084       .  S
C840        C841   1.404       .  A
C840        H847   1.083       .  S
C841        C842   1.405       .  A
C842        H848   1.084       .  S
C849        C850   1.404       .  A
C849        C854   1.406       .  A
C850        C851   1.400       .  A
C850        H859   1.083       .  S
C851        C852   1.404       .  A
C851        H860   1.083       .  S
C852        C858   1.406       .  A
C852        C853   1.413       .  A
C853        C855   1.402       .  A
C853        C854   1.403       .  A
C854        H861   1.084       .  S
C855        C856   1.397       .  A
C855        H862   1.084       .  S
C856        C857   1.404       .  A
C856        H863   1.083       .  S
C857        C858   1.409       .  A
C858        H864   1.084       .  S
C865        C866   1.402       .  A
C865        C870   1.409       .  A
C866        C867   1.396       .  A
C866        H875   1.083       .  S
C867        C868   1.403       .  A
C867        H876   1.084       .  S
C868        C874   1.398       .  A
C868        C869   1.412       .  A
C869        C871   1.405       .  A
C869        C870   1.402       .  A
C870        H877   1.083       .  S
C871        C872   1.401       .  A
C871        H878   1.082       .  S
C872        C873   1.404       .  A
C872        H879   1.082       .  S
C873        C874   1.405       .  A
C874        H880   1.086       .  S
C881        C882   1.405       .  A
C881        C886   1.408       .  A
C882        C883   1.394       .  A
C882        H891   1.084       .  S
C883        C884   1.400       .  A
C883        H892   1.084       .  S
C884        C890   1.402       .  A
C884        C885   1.414       .  A
C885        C887   1.404       .  A
C885        C886   1.408       .  A
C886        H893   1.084       .  S
C887        C888   1.400       .  A
C887        H894   1.084       .  S
C888        C889   1.405       .  A
C888        H895   1.082       .  S
C889        C890   1.404       .  A
C890        H896   1.085       .  S
C897        C898   1.404       .  A
C897        C902   1.405       .  A
C898        C899   1.398       .  A
C898        H907   1.083       .  S
C899        C900   1.403       .  A
C899        H908   1.084       .  S
C900        C906   1.405       .  A
C900        C901   1.414       .  A
C901        C903   1.401       .  A
C901        C902   1.403       .  A
C902        H909   1.084       .  S
C903        C904   1.396       .  A
C903        H910   1.084       .  S
C904        C905   1.405       .  A
C904        H911   1.083       .  S
C905       C1620   1.477       .  S
C905        C906   1.406       .  A
C906       H2352   1.084       .  S
H912       C2346   1.084       .  S
C913        C914   1.406       .  A
C913        C918   1.407       .  A
C914        C915   1.398       .  A
C914        H923   1.083       .  S
C915        C916   1.402       .  A
C915        H924   1.083       .  S
C916        C922   1.406       .  A
C916        C917   1.414       .  A
C917        C919   1.403       .  A
C917        C918   1.408       .  A
C918        H925   1.085       .  S
C919        C920   1.400       .  A
C919        H926   1.084       .  S
C920        C921   1.405       .  A
C920        H927   1.083       .  S
C921        C922   1.407       .  A
C922        H928   1.083       .  S
C929        C930   1.407       .  A
C929        C934   1.405       .  A
C930        C931   1.400       .  A
C930        H939   1.082       .  S
C931        C932   1.404       .  A
C931        H940   1.082       .  S
C932        C938   1.407       .  A
C932        C933   1.414       .  A
C933        C935   1.402       .  A
C933        C934   1.405       .  A
C934        H941   1.085       .  S
C935        C936   1.398       .  A
C935        H942   1.084       .  S
C936        C937   1.404       .  A
C936        H943   1.084       .  S
C937        C938   1.409       .  A
C938        H944   1.083       .  S
C945        C946   1.404       .  A
C945        C950   1.408   1_554  A
C946        C947   1.398   1_565  A
C946        H955   1.083       .  S
C947       C2388   1.403       .  A
C947        H956   1.084       .  S
C948        C954   1.407       .  A
C948       C2387   1.404       .  A
C948       C2389   1.413   1_545  A
C949        C950   1.405       .  A
C949       C2388   1.413   1_566  A
C949       C2391   1.404       .  A
C950        H957   1.084       .  S
C951        C952   1.402   1_565  A
C951       C2389   1.405       .  A
C951        H958   1.083       .  S
C952        C953   1.405       .  A
C952        H959   1.083       .  S
C953        C954   1.409       .  A
C954        H960   1.085       .  S
C961        C962   1.405       .  A
C961        C966   1.407       .  A
C962        C963   1.396       .  A
C962        H971   1.083       .  S
C963        C964   1.401   1_455  A
C963        H972   1.084       .  S
C964        C970   1.402       .  A
C964        C965   1.414   1_655  A
C965        C967   1.404   1_455  A
C965        C966   1.406       .  A
C966        H973   1.084       .  S
C967        C968   1.400       .  A
C967        H974   1.084       .  S
C968        C969   1.405       .  A
C968        H975   1.083       .  S
C969        C970   1.405       .  A
C970        H976   1.085       .  S
C977        C978   1.405       .  A
C977        C982   1.404       .  A
C978        C979   1.397       .  A
C978        H987   1.083       .  S
C979        C980   1.402       .  A
C979        H988   1.083       .  S
C980        C986   1.403       .  A
C980        C981   1.414       .  A
C981        C983   1.402       .  A
C981        C982   1.403       .  A
C982        H989   1.084       .  S
C983        C984   1.397       .  A
C983        H990   1.084       .  S
C984        C985   1.404       .  A
C984        H991   1.083       .  S
C985        C986   1.406       .  A
C986        H992   1.084       .  S
C993        C994   1.405       .  A
C993        C998   1.407       .  A
C994        C995   1.393       .  A
C994       H1003   1.084       .  S
C995        C996   1.399       .  A
C995       H1004   1.084       .  S
C996       C1002   1.401       .  A
C996        C997   1.415       .  A
C997        C999   1.404       .  A
C997        C998   1.408       .  A
C998       H1005   1.083       .  S
C999       C1000   1.400       .  A
C999       H1006   1.083       .  S
C1000      C1001   1.406       .  A
C1000      H2447   1.082       .  S
C1001      C1627   1.476       .  S
C1001      C1002   1.402       .  A
C1002      H1008   1.085       .  S
H1007      C2440   1.083       .  S
C1009      C1010   1.405       .  A
C1009      C1014   1.404       .  A
C1010      C1011   1.396       .  A
C1010      H1019   1.083       .  S
C1011      C1012   1.401   1_655  A
C1011      H1020   1.083       .  S
C1012      C1018   1.402       .  A
C1012      C1013   1.414   1_455  A
C1013      C1015   1.401   1_655  A
C1013      C1014   1.403       .  A
C1014      H1021   1.084       .  S
C1015      C1016   1.396       .  A
C1015      H1022   1.084   1_455  S
C1016      C1017   1.404       .  A
C1016      H1023   1.083       .  S
C1017      C1018   1.405       .  A
C1018      H1024   1.084       .  S
C1025      C1026   1.405       .  A
C1025      C1030   1.404       .  A
C1026      C1027   1.399   1_545  A
C1026      H1035   1.082       .  S
C1027      C1028   1.404       .  A
C1027      H1036   1.083       .  S
C1028      C1034   1.402       .  A
C1028      C1029   1.413       .  A
C1029      C1031   1.401       .  A
C1029      C1030   1.398   1_565  A
C1030      H1037   1.086       .  S
C1031      C1032   1.395       .  A
C1031      H1038   1.084       .  S
C1032      C1033   1.403       .  A
C1032      H1039   1.084       .  S
C1033      C1034   1.407       .  A
C1034      H1040   1.084       .  S
C1041      C1042   1.406       .  A
C1041      C1046   1.403       .  A
C1042      C1043   1.401       .  A
C1042      H1051   1.083       .  S
C1043      C1044   1.404       .  A
C1043      H1052   1.082       .  S
C1044      C1050   1.408       .  A
C1044      C1045   1.414       .  A
C1045      C1047   1.400       .  A
C1045      C1046   1.401       .  A
C1046      H1053   1.085       .  S
C1047      C1048   1.393       .  A
C1047      H1054   1.084       .  S
C1048      C1049   1.404   1_554  A
C1048      H2495   1.084   1_554  S
C1049      C1607   1.477       .  S
C1049      C1050   1.408   1_556  A
C1050      H1056   1.082       .  S
H1055      C2488   1.083       .  S
C1057      C1058   1.405       .  A
C1057      C1062   1.408       .  A
C1058      C1059   1.397       .  A
C1058      H1067   1.083       .  S
C1059      C1060   1.402       .  A
C1059      H1068   1.084       .  S
C1060      C1066   1.406       .  A
C1060      C1061   1.414       .  A
C1061      C1063   1.404       .  A
C1061      C1062   1.408       .  A
C1062      H1069   1.084       .  S
C1063      C1064   1.401       .  A
C1063      H1070   1.083       .  S
C1064      C1065   1.406       .  A
C1064      H1071   1.084       .  S
C1065      C1066   1.407       .  A
C1066      H1072   1.084       .  S
C1073      C1074   1.405       .  A
C1073      C1078   1.405       .  A
C1074      C1075   1.397       .  A
C1074      H1083   1.083       .  S
C1075      C1076   1.401       .  A
C1075      H1084   1.085       .  S
C1076      C1082   1.404       .  A
C1076      C1077   1.415       .  A
C1077      C1079   1.401       .  A
C1077      C1078   1.404       .  A
C1078      H1085   1.084       .  S
C1079      C1080   1.396       .  A
C1079      H1086   1.084       .  S
C1080      C1081   1.405       .  A
C1080      H1087   1.082       .  S
C1081      C1082   1.404       .  A
C1082      H1088   1.085       .  S
C1089      C1090   1.404       .  A
C1089      C1094   1.404       .  A
C1090      C1091   1.400       .  A
C1090      H1099   1.083       .  S
C1091      C1092   1.404       .  A
C1091      H1100   1.084       .  S
C1092      C1098   1.405       .  A
C1092      C1093   1.414       .  A
C1093      C1095   1.400       .  A
C1093      C1094   1.398       .  A
C1094      H1101   1.085       .  S
C1095      C1096   1.393       .  A
C1095      H1102   1.084       .  S
C1096      C1097   1.404       .  A
C1096      H1103   1.083       .  S
C1097      C1549   1.473       .  S
C1097      C1098   1.406       .  A
C1098      H2544   1.084       .  S
H1104      C2538   1.085       .  S
C1105      C1106   1.403       .  A
C1105      C1110   1.408       .  A
C1106      C1107   1.396       .  A
C1106      H1115   1.084       .  S
C1107      C1108   1.402       .  A
C1107      H1116   1.084       .  S
C1108      C1114   1.401       .  A
C1108      C1109   1.413       .  A
C1109      C1111   1.404       .  A
C1109      C1110   1.405       .  A
C1110      H1117   1.084       .  S
C1111      C1112   1.400       .  A
C1111      H1118   1.083       .  S
C1112      C1113   1.405       .  A
C1112      H1119   1.082       .  S
C1113      C1114   1.405       .  A
C1114      H1120   1.085       .  S
C1121      C1122   1.405       .  A
C1121      C1126   1.409       .  A
C1122      C1123   1.394       .  A
C1122      H1131   1.083       .  S
C1123      C1124   1.399       .  A
C1123      H1132   1.084       .  S
C1124      C1130   1.402       .  A
C1124      C1125   1.414       .  A
C1125      C1127   1.405       .  A
C1125      C1126   1.410       .  A
C1126      H1133   1.084       .  S
C1127      C1128   1.402       .  A
C1127      H1134   1.084       .  S
C1128      C1129   1.406       .  A
C1128      H1135   1.083       .  S
C1129      C1130   1.404       .  A
C1130      H1136   1.085       .  S
C1137      C1138   1.406       .  A
C1137      C1142   1.406       .  A
C1138      C1139   1.397       .  A
C1138      H1147   1.083       .  S
C1139      C1140   1.401       .  A
C1139      H1148   1.084       .  S
C1140      C1146   1.405       .  A
C1140      C1141   1.414       .  A
C1141      C1143   1.403       .  A
C1141      C1142   1.407       .  A
C1142      H2589   1.085       .  S
C1143      C1144   1.399       .  A
C1143      H2590   1.084       .  S
C1144      C1145   1.405       .  A
C1144      H2591   1.083       .  S
C1145      C1146   1.406       .  A
C1146      H1152   1.084       .  S
H1149      C2582   1.085       .  S
H1150      C2583   1.084   1_554  S
H1151      C2584   1.083       .  S
C1153      C1154   1.408       .  A
C1153      C1158   1.404       .  A
C1154      C1155   1.399       .  A
C1154      H1163   1.082       .  S
C1155      C1156   1.402       .  A
C1155      H1164   1.084       .  S
C1156      C1162   1.410       .  A
C1156      C1157   1.416       .  A
C1157      C1159   1.399       .  A
C1157      C1158   1.407       .  A
C1158      H1165   1.085       .  S
C1159      C1160   1.396       .  A
C1159      H1166   1.084       .  S
C1160      C1161   1.407       .  A
C1160      H1167   1.083       .  S
C1161      C1162   1.406       .  A
C1162      H1168   1.085       .  S
C1169      C1170   1.406       .  A
C1169      C1174   1.404       .  A
C1170      C1171   1.398       .  A
C1170      H1179   1.082       .  S
C1171      C1172   1.402       .  A
C1171      H1180   1.083       .  S
C1172      C1178   1.407       .  A
C1172      C1173   1.415       .  A
C1173      C1175   1.401       .  A
C1173      C1174   1.405       .  A
C1174      H1181   1.085       .  S
C1175      C1176   1.397       .  A
C1175      H1182   1.084       .  S
C1176      C1177   1.405       .  A
C1176      H1183   1.084       .  S
C1177      C1178   1.407       .  A
C1178      H1184   1.083       .  S
C1185      C1186   1.404       .  A
C1185      C1190   1.406       .  A
C1186      C1187   1.398       .  A
C1186      H1195   1.083       .  S
C1187      C1188   1.403       .  A
C1187      H1196   1.084       .  S
C1188      C1194   1.404       .  A
C1188      C1189   1.413       .  A
C1189      C1191   1.402       .  A
C1189      C1190   1.403       .  A
C1190      H1197   1.083       .  S
C1191      C1192   1.398       .  A
C1191      H1198   1.083       .  S
C1192      C1193   1.406       .  A
C1192      H1199   1.083       .  S
C1193      C1194   1.406       .  A
C1194      H1200   1.085       .  S
C1201      C1499   1.474       .  S
C1201      C1202   1.404       .  A
C1201      C1206   1.407       .  A
C1202      C1203   1.394       .  A
C1202      H1211   1.084       .  S
C1203      C1204   1.401       .  A
C1203      H1212   1.084       .  S
C1204      C1210   1.400       .  A
C1204      C1205   1.414       .  A
C1205      C1207   1.403       .  A
C1205      C1206   1.404       .  A
C1206      H1213   1.083       .  S
C1207      C1208   1.399       .  A
C1207      H1214   1.083       .  S
C1208      C1209   1.404       .  A
C1208      H1215   1.083       .  S
C1209      C1210   1.403       .  A
C1210      H1216   1.085       .  S
C1217      C1218   1.406       .  A
C1217      C1222   1.411       .  A
C1218      C1219   1.397       .  A
C1218      H1227   1.083       .  S
C1219      C1220   1.401       .  A
C1219      H1228   1.083       .  S
C1220      C1226   1.406       .  A
C1220      C1221   1.414       .  A
C1221      C1223   1.406       .  A
C1221      C1222   1.414       .  A
C1222      H1229   1.084       .  S
C1223      C1224   1.405       .  A
C1223      H1230   1.084       .  S
C1224      C1225   1.406       .  A
C1224      H1231   1.083       .  S
C1225      C1226   1.407       .  A
C1226      H1232   1.084       .  S
C1233      C1234   1.403       .  A
C1233      C1238   1.410       .  A
C1234      C1235   1.397       .  A
C1234      H1243   1.084       .  S
C1235      C2676   1.403       .  A
C1235      H1244   1.084       .  S
C1236      C1242   1.401       .  A
C1236      C1237   1.412       .  A
C1236      C2675   1.403       .  A
C1237      C1239   1.406       .  A
C1237      C2678   1.407       .  A
C1238      C2677   1.407   1_554  A
C1238      H1245   1.084   1_554  S
C1239      C1240   1.403       .  A
C1239      H1246   1.083       .  S
C1240      C1241   1.404       .  A
C1240      H1247   1.082       .  S
C1241      C1242   1.407       .  A
C1242      H1248   1.085       .  S
C1249      C1250   1.405       .  A
C1249      C1254   1.407       .  A
C1250      C1251   1.393       .  A
C1250      H1259   1.083       .  S
C1251      C1252   1.400   1_655  A
C1251      H1260   1.084   1_655  S
C1252      C1258   1.398       .  A
C1252      C1253   1.414   1_455  A
C1253      C1255   1.404   1_655  A
C1253      C1254   1.405       .  A
C1254      H1261   1.084       .  S
C1255      C1256   1.400       .  A
C1255      H1262   1.083   1_455  S
C1256      C1257   1.405       .  A
C1256      H1263   1.083       .  S
C1257      C1258   1.403       .  A
C1258      H1264   1.085       .  S
C1265      C1266   1.406       .  A
C1265      C1270   1.405       .  A
C1266      C1267   1.402       .  A
C1266      H1275   1.083       .  S
C1267      C1268   1.404   1_455  A
C1267      H1276   1.083       .  S
C1268      C1274   1.409       .  A
C1268      C1269   1.414   1_655  A
C1269      C1271   1.401   1_455  A
C1269      C1270   1.403       .  A
C1270      H1277   1.085       .  S
C1271      C1272   1.395       .  A
C1271      H1278   1.084   1_655  S
C1272      C1273   1.405       .  A
C1272      H1279   1.083       .  S
C1273      C1274   1.408       .  A
C1274      H1280   1.083       .  S
C1281      C1282   1.405       .  A
C1281      C1286   1.404       .  A
C1282      C1283   1.397       .  A
C1282      H1291   1.083       .  S
C1283      C1284   1.402       .  A
C1283      H1292   1.083       .  S
C1284      C1290   1.401       .  A
C1284      C1285   1.414       .  A
C1285      C1287   1.402       .  A
C1285      C1286   1.401       .  A
C1286      H1293   1.085       .  S
C1287      C1288   1.396       .  A
C1287      H1294   1.084       .  S
C1288      C1289   1.404       .  A
C1288      H1295   1.082       .  S
C1289      C1290   1.404       .  A
C1290      H1296   1.085       .  S
C1297      C1523   1.480   1_554  S
C1297      C1298   1.406       .  A
C1297      C1302   1.407       .  A
C1298      C1299   1.394       .  A
C1298      H2747   1.084       .  S
C1299      C1300   1.399       .  A
C1299      H1308   1.083       .  S
C1300      C1306   1.403       .  A
C1300      C1301   1.415       .  A
C1301      C1303   1.404       .  A
C1301      C1302   1.410       .  A
C1302      H1309   1.084       .  S
C1303      C1304   1.401       .  A
C1303      H1310   1.084       .  S
C1304      C1305   1.405       .  A
C1304      H1311   1.083       .  S
C1305      C1306   1.405       .  A
C1306      H1312   1.084       .  S
H1307      C2738   1.084       .  S
C1313      C1314   1.406       .  A
C1313      C1318   1.404       .  A
C1314      C1315   1.399       .  A
C1314      H1323   1.083       .  S
C1315      C1316   1.403       .  A
C1315      H1324   1.084       .  S
C1316      C1322   1.407       .  A
C1316      C1317   1.415       .  A
C1317      C1319   1.400       .  A
C1317      C1318   1.404       .  A
C1318      H1325   1.085       .  S
C1319      C1320   1.395       .  A
C1319      H1326   1.084       .  S
C1320      C1321   1.406       .  A
C1320      H1327   1.083       .  S
C1321      C1322   1.406       .  A
C1322      H1328   1.084       .  S
C1329      C1330   1.404       .  A
C1329      C1334   1.407       .  A
C1330      C1331   1.397       .  A
C1330      H1339   1.083       .  S
C1331      C1332   1.402       .  A
C1331      H1340   1.084       .  S
C1332      C1338   1.404       .  A
C1332      C1333   1.414       .  A
C1333      C1335   1.403       .  A
C1333      C1334   1.405       .  A
C1334      H1341   1.084       .  S
C1335      C1336   1.399       .  A
C1335      H1342   1.083       .  S
C1336      C1337   1.406       .  A
C1336      H1343   1.083       .  S
C1337      C1338   1.406       .  A
C1338      H1344   1.085       .  S
C1345      C1346   1.406       .  A
C1345      C1350   1.409       .  A
C1346      C1347   1.395       .  A
C1346      H1355   1.083       .  S
C1347      C1348   1.400       .  A
C1347      H1356   1.083       .  S
C1348      C1354   1.404       .  A
C1348      C1349   1.414       .  A
C1349      C1351   1.405       .  A
C1349      C1350   1.411       .  A
C1350      H1357   1.083       .  S
C1351      C1352   1.403       .  A
C1351      H1358   1.083       .  S
C1352      C1353   1.406       .  A
C1352      H1359   1.083       .  S
C1353      C1354   1.406       .  A
C1354      H1360   1.084       .  S
C1361      C1362   1.404       .  A
C1361      C1366   1.405       .  A
C1362      C1363   1.394       .  A
C1362      H1371   1.083       .  S
C1363      C1364   1.401       .  A
C1363      H1372   1.083       .  S
C1364      C1370   1.399       .  A
C1364      C1365   1.414       .  A
C1365      C1367   1.402       .  A
C1365      C1366   1.402       .  A
C1366      H1373   1.083       .  S
C1367      C1368   1.398       .  A
C1367      H1374   1.083       .  S
C1368      C1369   1.404   1_554  A
C1368      H2815   1.083   1_554  S
C1369      C1512   1.472       .  S
C1369      C1370   1.403   1_556  A
C1370      H1376   1.084       .  S
H1375      C2808   1.084       .  S
C1377      C1378   1.404       .  A
C1377      C1382   1.406       .  A
C1378      C1379   1.392       .  A
C1378      H1387   1.084       .  S
C1379      C1380   1.399       .  A
C1379      H1388   1.084       .  S
C1380      C1386   1.398       .  A
C1380      C1381   1.414       .  A
C1381      C1383   1.403       .  A
C1381      C1382   1.405       .  A
C1382      H1389   1.084       .  S
C1383      C1384   1.399       .  A
C1383      H1390   1.084       .  S
C1384      C1385   1.404       .  A
C1384      H1391   1.083       .  S
C1385      C1386   1.403       .  A
C1386      H1392   1.084       .  S
C1393      C1445   1.478       .  S
C1393      C1398   1.406       .  A
C1393      C2834   1.405       .  A
C1394      C2833   1.406       .  A
C1394      C2835   1.393       .  A
C1394      H1403   1.083       .  S
C1395      C1396   1.401       .  A
C1395      C2834   1.395       .  A
C1395      H1404   1.084       .  S
C1396      C1402   1.404       .  A
C1396      C1397   1.415       .  A
C1397      C1399   1.404       .  A
C1397      C1398   1.409       .  A
C1398      H1405   1.084       .  S
C1399      C1400   1.401       .  A
C1399      H1406   1.084       .  S
C1400      C1401   1.405       .  A
C1400      H1407   1.083       .  S
C1401      C1402   1.406       .  A
C1402      H1408   1.083       .  S
C1409      C1410   1.403       .  A
C1409      C1414   1.403       .  A
C1410      C1411   1.395       .  A
C1410      H1419   1.084       .  S
C1411      C1412   1.401       .  A
C1411      H1420   1.084       .  S
C1412      C1418   1.399       .  A
C1412      C1413   1.414       .  A
C1413      C1415   1.401       .  A
C1413      C1414   1.400       .  A
C1414      H1421   1.084       .  S
C1415      C1416   1.395       .  A
C1415      H1422   1.083       .  S
C1416      C1417   1.404       .  A
C1416      H1423   1.083       .  S
C1417      C1418   1.403       .  A
C1418      H1424   1.085       .  S
C1425      C1426   1.406       .  A
C1425      C1430   1.403       .  A
C1426      C1427   1.397       .  A
C1426      H1435   1.083       .  S
C1427      C1428   1.401       .  A
C1427      H1436   1.085       .  S
C1428      C1434   1.407       .  A
C1428      C1429   1.416       .  A
C1429      C1431   1.399       .  A
C1429      C1430   1.405       .  A
C1430      H1437   1.085       .  S
C1431      C1432   1.395       .  A
C1431      H1438   1.084       .  S
C1432      C1433   1.407       .  A
C1432      H1439   1.083       .  S
C1433      C1434   1.404       .  A
C1434      H1440   1.085       .  S
In1441     O1443   2.244       .  S
In1441     O1444   2.220       .  S
In1441     O1452   2.233       .  S
In1441     O1446   2.278       .  S
In1441     O1448   2.268       .  S
In1441     O1449   2.238       .  S
In1441     O1450   2.231       .  S
In1441     O1453   2.229       .  S
C1442      O1448   1.266       .  A
C1442      O1450   1.257       .  A
C1442      C2865   1.480       .  S
O1443      C1451   1.264       .  A
O1444      C1451   1.262       .  A
C1445      O1452   1.257       .  A
C1445      O1446   1.263       .  A
C1447      O1449   1.261       .  A
C1447      O1453   1.262       .  A
C1447      C2849   1.471       .  S
C1451      C2825   1.473       .  S
In1454     O1456   2.243       .  S
In1454     O1457   2.246       .  S
In1454     O1465   2.230       .  S
In1454     O1459   2.272       .  S
In1454     O1461   2.270       .  S
In1454     O1462   2.224       .  S
In1454     O1463   2.219       .  S
In1454     O1466   2.226       .  S
C1455      O1461   1.267       .  A
C1455      O1463   1.258       .  A
C1455      C2873   1.476       .  S
O1456      C1464   1.262       .  A
O1457      C1464   1.262       .  A
C1458      O1465   1.259       .  A
C1458      O1459   1.265       .  A
C1458      C2785   1.484       .  S
C1460      O1462   1.265       .  A
C1460      O1466   1.263       .  A
C1460      C2801   1.469       .  S
C1464      C2769   1.479       .  S
In1467     O1469   2.264       .  S
In1467     O1470   2.235       .  S
In1467     O1478   2.255       .  S
In1467     O1472   2.273       .  S
In1467     O1474   2.251       .  S
In1467     O1475   2.239       .  S
In1467     O1476   2.253       .  S
In1467     O1479   2.230       .  S
C1468      O1474   1.258       .  A
C1468      O1476   1.262       .  A
C1468      C2753   1.478       .  S
O1469      C1477   1.261       .  A
O1470      C1477   1.257       .  A
C1471      O1478   1.258       .  A
C1471      O1472   1.259       .  A
C1471      C2745   1.485       .  S
C1473      O1475   1.262       .  A
C1473      O1479   1.263       .  A
C1473      C2721   1.473       .  S
C1477      C2713   1.477       .  S
In1480     O1482   2.251       .  S
In1480     O1483   2.236       .  S
In1480     O1491   2.259       .  S
In1480     O1485   2.242       .  S
In1480     O1487   2.227       .  S
In1480     O1488   2.243       .  S
In1480     O1489   2.256       .  S
In1480     O1492   2.241       .  S
C1481      O1487   1.261       .  A
C1481      O1489   1.263       .  A
C1481      C2761   1.477       .  S
O1482      C1490   1.262       .  A
O1483      C1490   1.260       .  A
C1484      O1491   1.259       .  A
C1484      O1485   1.258       .  A
C1484      C2841   1.476       .  S
C1486      O1488   1.260       .  A
C1486      O1492   1.260       .  A
C1486      C2857   1.473       .  S
C1490      C2689   1.476       .  S
In1493     O1495   2.268       .  S
In1493     O1496   2.241       .  S
In1493     O1504   2.250       .  S
In1493     O1498   2.279       .  S
In1493     O1500   2.245       .  S
In1493     O1501   2.238       .  S
In1493     O1502   2.266       .  S
In1493     O1505   2.237       .  S
C1494      O1500   1.257       .  A
C1494      O1502   1.264       .  A
C1494      C2673   1.480       .  S
O1495      C1503   1.261       .  A
O1496      C1503   1.258       .  A
C1497      O1504   1.259       .  A
C1497      O1498   1.262       .  A
C1497      C2665   1.488       .  S
C1499      O1501   1.262       .  A
C1499      O1505   1.263       .  A
C1503      C2625   1.481       .  S
In1506     O1508   2.249       .  S
In1506     O1509   2.230       .  S
In1506     O1517   2.258       .  S
In1506     O1511   2.267       .  S
In1506     O1513   2.270       .  S
In1506     O1514   2.245       .  S
In1506     O1515   2.229       .  S
In1506     O1518   2.232       .  S
C1507      O1513   1.265       .  A
C1507      O1515   1.259       .  A
C1507      C2681   1.481       .  S
O1508      C1516   1.263       .  A
O1509      C1516   1.260       .  A
C1510      O1517   1.258       .  A
C1510      O1511   1.260       .  A
C1510      C2793   1.484       .  S
C1512      O1514   1.261       .  A
C1512      O1518   1.261       .  A
C1516      C2609   1.475       .  S
In1519     O1521   2.244       .  S
In1519     O1522   2.227       .  S
In1519     O1530   2.226       .  S
In1519     O1524   2.279       .  S
In1519     O1526   2.269       .  S
In1519     O1527   2.247       .  S
In1519     O1528   2.231       .  S
In1519     O1531   2.223       .  S
C1520      O1526   1.267       .  A
C1520      O1528   1.259       .  A
C1520      C2593   1.481       .  S
O1521      C1529   1.264       .  A
O1522      C1529   1.263       .  A
C1523      O1530   1.258       .  A
C1523      O1524   1.264       .  A
C1525      O1527   1.263       .  A
C1525      O1531   1.261       .  A
C1525      C2729   1.472       .  S
C1529      C2585   1.475       .  S
In1532     O1534   2.267       .  S
In1532     O1535   2.245       .  S
In1532     O1543   2.251       .  S
In1532     O1537   2.291       .  S
In1532     O1539   2.279       .  S
In1532     O1540   2.260       .  S
In1532     O1541   2.230       .  S
In1532     O1544   2.227       .  S
C1533      O1539   1.267       .  A
C1533      O1541   1.259       .  A
C1533      C2601   1.484       .  S
O1534      C1542   1.263       .  A
O1535      C1542   1.262       .  A
C1536      O1543   1.258       .  A
C1536      O1537   1.261       .  A
C1536      C2657   1.489       .  S
C1538      O1540   1.262       .  A
C1538      O1544   1.260       .  A
C1538      C2649   1.474       .  S
C1542      C2561   1.486       .  S
In1545     O1547   2.252       .  S
In1545     O1548   2.227       .  S
In1545     O1556   2.252       .  S
In1545     O1550   2.231       .  S
In1545     O1552   2.252       .  S
In1545     O1553   2.236       .  S
In1545     O1554   2.243       .  S
In1545     O1557   2.244       .  S
C1546      O1552   1.261       .  A
C1546      O1554   1.258       .  A
C1546      C2545   1.476       .  S
O1547      C1555   1.263       .  A
O1548      C1555   1.260       .  A
C1549      O1556   1.261       .  A
C1549      O1550   1.259       .  A
C1551      O1553   1.259       .  A
C1551      O1557   1.260       .  A
C1551      C2817   1.472       .  S
C1555      C2521   1.475       .  S
In1558     O1560   2.248       .  S
In1558     O1561   2.253       .  S
In1558     O1569   2.245       .  S
In1558     O1563   2.280       .  S
In1558     O1565   2.268       .  S
In1558     O1566   2.235       .  S
In1558     O1567   2.235       .  S
In1558     O1570   2.259       .  S
C1559      O1565   1.263       .  A
C1559      O1567   1.258       .  A
C1559      C2553   1.479       .  S
O1560      C1568   1.261       .  A
O1561      C1568   1.261       .  A
C1562      O1569   1.257       .  A
C1562      O1563   1.260       .  A
C1562      C2497   1.483       .  S
C1564      O1566   1.261       .  A
C1564      O1570   1.263       .  A
C1564      C2777   1.480       .  S
C1568      C2481   1.480       .  S
In1571     O1573   2.250       .  S
In1571     O1574   2.239       .  S
In1571     O1582   2.229       .  S
In1571     O1576   2.265       .  S
In1571     O1578   2.250       .  S
In1571     O1579   2.229       .  S
In1571     O1580   2.239       .  S
In1571     O1583   2.255       .  S
C1572      O1578   1.260       .  A
C1572      O1580   1.259       .  A
C1572      C2465   1.476       .  S
O1573      C1581   1.262       .  A
O1574      C1581   1.259       .  A
C1575      O1582   1.256       .  A
C1575      O1576   1.261       .  A
C1575      C2529   1.475       .  S
C1577      O1579   1.259       .  A
C1577      O1583   1.260       .  A
C1577      C2449   1.473       .  S
C1581      C2513   1.474       .  S
In1584     O1586   2.232       .  S
In1584     O1587   2.245       .  S
In1584     O1595   2.235       .  S
In1584     O1589   2.263       .  S
In1584     O1591   2.251       .  S
In1584     O1592   2.223       .  S
In1584     O1593   2.233       .  S
In1584     O1596   2.261       .  S
C1585      O1591   1.264       .  A
C1585      O1593   1.260       .  A
C1585      C2473   1.476       .  S
O1586      C1594   1.259       .  A
O1587      C1594   1.260       .  A
C1588      O1595   1.258       .  A
C1588      O1589   1.262       .  A
C1588      C2433   1.477       .  S
C1590      O1592   1.259       .  A
C1590      O1596   1.263       .  A
C1590      C2409   1.476       .  S
C1594      C2425   1.470       .  S
In1597     O1599   2.256       .  S
In1597     O1600   2.231       .  S
In1597     O1608   2.267       .  S
In1597     O1602   2.259       .  S
In1597     O1604   2.263       .  S
In1597     O1605   2.242       .  S
In1597     O1606   2.242       .  S
In1597     O1609   2.266       .  S
C1598      O1604   1.263       .  A
C1598      O1606   1.259       .  A
C1598      C2393   1.480       .  S
O1599      C1607   1.262       .  A
O1600      C1607   1.261       .  A
C1601      O1608   1.260       .  A
C1601      O1602   1.259       .  A
C1601      C2505   1.484       .  S
C1603      O1605   1.258       .  A
C1603      O1609   1.262       .  A
C1603      C2377   1.481       .  S
In1610     O1612   2.239       .  S
In1610     O1613   2.245       .  S
In1610     O1621   2.250       .  S
In1610     O1615   2.270       .  S
In1610     O1617   2.250       .  S
In1610     O1618   2.241       .  S
In1610     O1619   2.271       .  S
In1610     O1622   2.273       .  S
C1611      O1617   1.258       .  A
C1611      O1619   1.263       .  A
C1611      C2385   1.484       .  S
O1612      C1620   1.263       .  A
O1613      C1620   1.263       .  A
C1614      O1621   1.259       .  A
C1614      O1615   1.261       .  A
C1614      C2361   1.483       .  S
C1616      O1618   1.258       .  A
C1616      O1622   1.261       .  A
C1616      C2321   1.481       .  S
In1623     O1625   2.222       .  S
In1623     O1626   2.243       .  S
In1623     O1634   2.246       .  S
In1623     O1628   2.253       .  S
In1623     O1630   2.246       .  S
In1623     O1631   2.234       .  S
In1623     O1632   2.224       .  S
In1623     O1635   2.250       .  S
C1624      O1630   1.263       .  A
C1624      O1632   1.259       .  A
C1624      C2313   1.471       .  S
O1625      C1633   1.260       .  A
O1626      C1633   1.262       .  A
C1627      O1634   1.259   1_554  A
C1627      O1628   1.257   1_554  A
C1629      O1631   1.260       .  A
C1629      O1635   1.263       .  A
C1629      C2577   1.476       .  S
C1633      C2417   1.470       .  S
In1636     O1638   2.227       .  S
In1636     O1639   2.257       .  S
In1636     O1647   2.251       .  S
In1636     O1641   2.271       .  S
In1636     O1643   2.257       .  S
In1636     O1644   2.243       .  S
In1636     O1645   2.216       .  S
In1636     O1648   2.262       .  S
C1637      O1643   1.264       .  A
C1637      O1645   1.258       .  A
C1637      C2305   1.472       .  S
O1638      C1646   1.259       .  A
O1639      C1646   1.262       .  A
C1640      O1647   1.258       .  A
C1640      O1641   1.258       .  A
C1640      C2353   1.482       .  S
C1642      O1644   1.262       .  A
C1642      O1648   1.264       .  A
C1642      C2569   1.485       .  S
C1646      C2337   1.474       .  S
In1649     O1651   2.235       .  S
In1649     O1652   2.258       .  S
In1649     O1660   2.261       .  S
In1649     O1654   2.250       .  S
In1649     O1656   2.264       .  S
In1649     O1657   2.237       .  S
In1649     O1658   2.244       .  S
In1649     O1661   2.252       .  S
C1650      O1656   1.264       .  A
C1650      O1658   1.260       .  A
C1650      C2289   1.482       .  S
O1651      C1659   1.260       .  A
O1652      C1659   1.261       .  A
C1653      O1660   1.259       .  A
C1653      O1654   1.257       .  A
C1653      C2265   1.480       .  S
C1655      O1657   1.260       .  A
C1655      O1661   1.261       .  A
C1655      C2697   1.476       .  S
C1659      C2273   1.477       .  S
In1662     O1664   2.237       .  S
In1662     O1665   2.232       .  S
In1662     O1673   2.252       .  S
In1662     O1667   2.261       .  S
In1662     O1669   2.256       .  S
In1662     O1670   2.246       .  S
In1662     O1671   2.259       .  S
In1662     O1674   2.253       .  S
C1663      O1669   1.258       .  A
C1663      O1671   1.262       .  A
C1663      C2297   1.482       .  S
O1664      C1672   1.263       .  A
O1665      C1672   1.262       .  A
C1666      O1673   1.260       .  A
C1666      O1667   1.262       .  A
C1666      C2241   1.483       .  S
C1668      O1670   1.259       .  A
C1668      O1674   1.260       .  A
C1668      C2705   1.477       .  S
C1672      C2233   1.472       .  S
In1675     O1677   2.224       .  S
In1675     O1678   2.259       .  S
In1675     O1686   2.236       .  S
In1675     O1680   2.257       .  S
In1675     O1682   2.274       .  S
In1675     O1683   2.237       .  S
In1675     O1684   2.214       .  S
In1675     O1687   2.240       .  S
C1676      O1682   1.266       .  A
C1676      O1684   1.259       .  A
C1676      C2217   1.477       .  S
O1677      C1685   1.262       .  A
O1678      C1685   1.264       .  A
C1679      O1686   1.260       .  A
C1679      O1680   1.264       .  A
C1681      O1683   1.264       .  A
C1681      O1687   1.262       .  A
C1681      C2201   1.476       .  S
C1685      C2281   1.478       .  S
In1688     O1690   2.233       .  S
In1688     O1691   2.235       .  S
In1688     O1699   2.253       .  S
In1688     O1693   2.262       .  S
In1688     O1695   2.257       .  S
In1688     O1696   2.222       .  S
In1688     O1697   2.237       .  S
In1688     O1700   2.255       .  S
C1689      O1695   1.265       .  A
C1689      O1697   1.259       .  A
C1689      C2209   1.479       .  S
O1690      C1698   1.260       .  A
O1691      C1698   1.260       .  A
C1692      O1699   1.256       .  A
C1692      O1693   1.259       .  A
C1692      C2177   1.480       .  S
C1694      O1696   1.259       .  A
C1694      O1700   1.264       .  A
C1694      C2145   1.474       .  S
C1698      C2169   1.467       .  S
In1701     O1703   2.234       .  S
In1701     O1704   2.241       .  S
In1701     O1712   2.250       .  S
In1701     O1706   2.282       .  S
In1701     O1708   2.264       .  S
In1701     O1709   2.233       .  S
In1701     O1710   2.242       .  S
In1701     O1713   2.254       .  S
C1702      O1708   1.265       .  A
C1702      O1710   1.258       .  A
C1702      C2137   1.481       .  S
O1703      C1711   1.260       .  A
O1704      C1711   1.261       .  A
C1705      O1712   1.257       .  A
C1705      O1706   1.260       .  A
C1707      O1709   1.260       .  A
C1707      O1713   1.263       .  A
C1707      C2113   1.477       .  S
C1711      C2225   1.470       .  S
In1714     O1716   2.222       .  S
In1714     O1717   2.238       .  S
In1714     O1725   2.248       .  S
In1714     O1719   2.279       .  S
In1714     O1721   2.275       .  S
In1714     O1722   2.246       .  S
In1714     O1723   2.235       .  S
In1714     O1726   2.242       .  S
C1715      O1721   1.264       .  A
C1715      O1723   1.257       .  A
C1715      C2129   1.482       .  S
O1716      C1724   1.261       .  A
O1717      C1724   1.261       .  A
C1718      O1725   1.260       .  A
C1718      O1719   1.262       .  A
C1718      C2089   1.487       .  S
C1720      O1722   1.260       .  A
C1720      O1726   1.263       .  A
C1720      C2073   1.477       .  S
C1724      C2105   1.469       .  S
In1727     O1729   2.237       .  S
In1727     O1730   2.236       .  S
In1727     O1738   2.242       .  S
In1727     O1732   2.263       .  S
In1727     O1734   2.272       .  S
In1727     O1735   2.236       .  S
In1727     O1736   2.234       .  S
In1727     O1739   2.241       .  S
C1728      O1734   1.265       .  A
C1728      O1736   1.259       .  A
C1728      C2049   1.482       .  S
O1729      C1737   1.262       .  A
O1730      C1737   1.261       .  A
C1731      O1738   1.259       .  A
C1731      O1732   1.264       .  A
C1731      C2185   1.481       .  S
C1733      O1735   1.261       .  A
C1733      O1739   1.262       .  A
C1733      C2617   1.474       .  S
In1740     O1742   2.240       .  S
In1740     O1743   2.258       .  S
In1740     O1751   2.246       .  S
In1740     O1745   2.276       .  S
In1740     O1747   2.260       .  S
In1740     O1748   2.237       .  S
In1740     O1749   2.247       .  S
In1740     O1752   2.269       .  S
C1741      O1747   1.264       .  A
C1741      O1749   1.260       .  A
C1741      C2057   1.482       .  S
O1742      C1750   1.260       .  A
O1743      C1750   1.260       .  A
C1744      O1751   1.259       .  A
C1744      O1745   1.262       .  A
C1744      C2081   1.486       .  S
C1746      O1748   1.260       .  A
C1746      O1752   1.262       .  A
C1746      C2633   1.482       .  S
In1753     O1755   2.250       .  S
In1753     O1756   2.231       .  S
In1753     O1764   2.238       .  S
In1753     O1758   2.268       .  S
In1753     O1760   2.263       .  S
In1753     O1761   2.231       .  S
In1753     O1762   2.235       .  S
In1753     O1765   2.240       .  S
C1754      O1760   1.264       .  A
C1754      O1762   1.258       .  A
C1754      C2041   1.478       .  S
O1755      C1763   1.264       .  A
O1756      C1763   1.261       .  A
C1757      O1764   1.259       .  A
C1757      O1758   1.264       .  A
C1759      O1761   1.261       .  A
C1759      O1765   1.261       .  A
C1759      C2001   1.471       .  S
C1763      C2121   1.476       .  S
In1766     O1768   2.236       .  S
In1766     O1769   2.251       .  S
In1766     O1777   2.275       .  S
In1766     O1771   2.236       .  S
In1766     O1773   2.247       .  S
In1766     O1774   2.255       .  S
In1766     O1775   2.256       .  S
In1766     O1778   2.222       .  S
C1767      O1773   1.260       .  A
C1767      O1775   1.261       .  A
C1767      C2033   1.479       .  S
O1768      C1776   1.262       .  A
O1769      C1776   1.261       .  A
C1770      O1777   1.261       .  A
C1770      O1771   1.258       .  A
C1770      C1993   1.481       .  S
C1772      O1774   1.260       .  A
C1772      O1778   1.259       .  A
C1772      C1969   1.470       .  S
C1776      C2065   1.476       .  S
In1779     O1781   2.255       .  S
In1779     O1782   2.246       .  S
In1779     O1790   2.244       .  S
In1779     O1784   2.252       .  S
In1779     O1786   2.260       .  S
In1779     O1787   2.240       .  S
In1779     O1788   2.249       .  S
In1779     O1791   2.232       .  S
C1780      O1786   1.258       .  A
C1780      O1788   1.260       .  A
C1780      C1953   1.478       .  S
O1781      C1789   1.260       .  A
O1782      C1789   1.259       .  A
C1783      O1790   1.262       .  A
C1783      O1784   1.262       .  A
C1783      C1985   1.479       .  S
C1785      O1787   1.262       .  A
C1785      O1791   1.261       .  A
C1789      C2329   1.478       .  S
In1792     O1794   2.263       .  S
In1792     O1795   2.236       .  S
In1792     O1803   2.277       .  S
In1792     O1797   2.241       .  S
In1792     O1799   2.272       .  S
In1792     O1800   2.244       .  S
In1792     O1801   2.236       .  S
In1792     O1804   2.247       .  S
C1793      O1799   1.263       .  A
C1793      O1801   1.258       .  A
C1793      C1961   1.482       .  S
O1794      C1802   1.263       .  A
O1795      C1802   1.260       .  A
C1796      O1803   1.261       .  A
C1796      O1797   1.258       .  A
C1796      C1945   1.483       .  S
C1798      O1800   1.260       .  A
C1798      O1804   1.261       .  A
C1802      C2369   1.480       .  S
In1805     O1807   2.262       .  S
In1805     O1808   2.223       .  S
In1805     O1816   2.244       .  S
In1805     O1810   2.261       .  S
In1805     O1812   2.263       .  S
In1805     O1813   2.236       .  S
In1805     O1814   2.236       .  S
In1805     O1817   2.239       .  S
C1806      O1812   1.264       .  A
C1806      O1814   1.258       .  A
C1806      C1913   1.479       .  S
O1807      C1815   1.262       .  A
O1808      C1815   1.258       .  A
C1809      O1816   1.259       .  A
C1809      O1810   1.261       .  A
C1811      O1813   1.260       .  A
C1811      O1817   1.262       .  A
C1811      C1873   1.473       .  S
C1815      C2193   1.475       .  S
In1818     O1820   2.246       .  S
In1818     O1821   2.236       .  S
In1818     O1829   2.249       .  S
In1818     O1823   2.266       .  S
In1818     O1825   2.273       .  S
In1818     O1826   2.253       .  S
In1818     O1827   2.231       .  S
In1818     O1830   2.227       .  S
C1819      O1825   1.264       .  A
C1819      O1827   1.258       .  A
C1819      C1905   1.478       .  S
O1820      C1828   1.261       .  A
O1821      C1828   1.261       .  A
C1822      O1829   1.259       .  A
C1822      O1823   1.262       .  A
C1822      C1937   1.484       .  S
C1824      O1826   1.263       .  A
C1824      O1830   1.262       .  A
C1824      C1921   1.475       .  S
C1828      C2153   1.475       .  S
In1831     O1833   2.251       .  S
In1831     O1834   2.240       .  S
In1831     O1842   2.260       .  S
In1831     O1836   2.268       .  S
In1831     O1838   2.246       .  S
In1831     O1839   2.248       .  S
In1831     O1840   2.275       .  S
In1831     O1843   2.223       .  S
C1832      O1838   1.257       .  A
C1832      O1840   1.264       .  A
C1832      C1857   1.485       .  S
O1833      C1841   1.263       .  A
O1834      C1841   1.261       .  A
C1835      O1842   1.258       .  A
C1835      O1836   1.260       .  A
C1835      C2017   1.483       .  S
C1837      O1839   1.262       .  A
C1837      O1843   1.260       .  A
C1837      C2009   1.471       .  S
C1841      C2401   1.478       .  S
In1844     O1846   2.248       .  S
In1844     O1847   2.218       .  S
In1844     O1855   2.277       .  S
In1844     O1849   2.237       .  S
In1844     O1851   2.269       .  S
In1844     O1852   2.247       .  S
In1844     O1853   2.244       .  S
In1844     O1856   2.231       .  S
C1845      O1851   1.266       .  A
C1845      O1853   1.259       .  A
C1845      C1865   1.485       .  S
O1846      C1854   1.263       .  A
O1847      C1854   1.262       .  A
C1848      O1855   1.263       .  A
C1848      O1849   1.257       .  A
C1848      C1897   1.483       .  S
C1850      O1852   1.261       .  A
C1850      O1856   1.261       .  A
C1850      C1881   1.469       .  S
C1854      C2457   1.472       .  S
C1857      C1858   1.404       .  A
C1857      C1862   1.409       .  A
C1858      C1859   1.401   1_565  A
C1858      H1867   1.083       .  S
C1859      C1860   1.405       .  A
C1859      H1868   1.083       .  S
C1860      C1866   1.408       .  A
C1860      C1861   1.413   1_545  A
C1861      C1863   1.404       .  A
C1861      C1862   1.407       .  A
C1862      H1869   1.084       .  S
C1863      C1864   1.400   1_565  A
C1863      H1870   1.084       .  S
C1864      C1865   1.404       .  A
C1864      H1871   1.083       .  S
C1865      C1866   1.410       .  A
C1866      H1872   1.083       .  S
C1873      C1874   1.403       .  A
C1873      C1878   1.407       .  A
C1874      C1875   1.394       .  A
C1874      H1883   1.084       .  S
C1875      C1876   1.400       .  A
C1875      H1884   1.084       .  S
C1876      C1882   1.399       .  A
C1876      C1877   1.414       .  A
C1877      C1879   1.404       .  A
C1877      C1878   1.403       .  A
C1878      H1885   1.084       .  S
C1879      C1880   1.399       .  A
C1879      H1886   1.083       .  S
C1880      C1881   1.404       .  A
C1880      H1887   1.083       .  S
C1881      C1882   1.402       .  A
C1882      H1888   1.085       .  S
C1889      C1890   1.405       .  A
C1889      C1894   1.408       .  A
C1890      C1891   1.402       .  A
C1890      H1899   1.083       .  S
C1891      C1892   1.404       .  A
C1891      H1900   1.084       .  S
C1892      C1898   1.410       .  A
C1892      C1893   1.414       .  A
C1893      C1895   1.401       .  A
C1893      C1894   1.406       .  A
C1895      C1896   1.397       .  A
C1895      H1902   1.084       .  S
C1896      C1897   1.407       .  A
C1896      H1903   1.082       .  S
C1897      C1898   1.407       .  A
C1898      H1904   1.084       .  S
C1905      C1906   1.406       .  A
C1905      C1910   1.405       .  A
C1906      C1907   1.395       .  A
C1906      H1915   1.084       .  S
C1907      C1908   1.400       .  A
C1907      H1916   1.084       .  S
C1908      C1914   1.405       .  A
C1908      C1909   1.416       .  A
C1909      C1911   1.402       .  A
C1909      C1910   1.408       .  A
C1910      H1917   1.085       .  S
C1911      C1912   1.398       .  A
C1911      H1918   1.084       .  S
C1912      C1913   1.407       .  A
C1912      H1919   1.082       .  S
C1913      C1914   1.403       .  A
C1914      H1920   1.085       .  S
C1921      C1922   1.404       .  A
C1921      C1926   1.407       .  A
C1922      C1923   1.393       .  A
C1922      H1931   1.084       .  S
C1923      C1924   1.399       .  A
C1923      H1932   1.084       .  S
C1924      C1930   1.400       .  A
C1924      C1925   1.414       .  A
C1925      C1927   1.403       .  A
C1925      C1926   1.406       .  A
C1926      H1933   1.084       .  S
C1927      C1928   1.400       .  A
C1927      H1934   1.084       .  S
C1928      C1929   1.405       .  A
C1928      H1935   1.083       .  S
C1929      C1930   1.403       .  A
C1930      H1936   1.085       .  S
C1937      C1938   1.406       .  A
C1937      C1942   1.406       .  A
C1938      C1939   1.402       .  A
C1938      H1947   1.083       .  S
C1939      C1940   1.404       .  A
C1939      H1948   1.084       .  S
C1940      C1946   1.411       .  A
C1940      C1941   1.414       .  A
C1941      C1943   1.401       .  A
C1941      C1942   1.405       .  A
C1942      H1949   1.085       .  S
C1943      C1944   1.396       .  A
C1943      H1950   1.084       .  S
C1944      C1945   1.406       .  A
C1944      H1951   1.083       .  S
C1945      C1946   1.409       .  A
C1946      H1952   1.084       .  S
C1953      C1954   1.404       .  A
C1953      C1958   1.409       .  A
C1954      H1963   1.084       .  S
C1955      C1956   1.401       .  A
C1955      H1964   1.084       .  S
C1956      C1962   1.403       .  A
C1957      C1959   1.405   1_565  A
C1957      C1958   1.408       .  A
C1958      H1965   1.083       .  S
C1959      H1966   1.083   1_545  S
C1960      C1961   1.405       .  A
C1960      H1967   1.083       .  S
C1961      C1962   1.406   1_556  A
C1962      H1968   1.084       .  S
C1969      C1970   1.404       .  A
C1969      C1974   1.403       .  A
C1970      C1971   1.399       .  A
C1970      H1979   1.082       .  S
C1971      C1972   1.404       .  A
C1971      H1980   1.083       .  S
C1972      C1978   1.402       .  A
C1972      C1973   1.413       .  A
C1973      C1975   1.401       .  A
C1973      C1974   1.397       .  A
C1974      H1981   1.085       .  S
C1975      C1976   1.394   1_556  A
C1975      H1982   1.083       .  S
C1976      C1977   1.403       .  A
C1977      C1978   1.406   1_554  A
C1978      H1984   1.084       .  S
C1985      C1986   1.406       .  A
C1985      C1990   1.404       .  A
C1986      C1987   1.401       .  A
C1986      H1995   1.083       .  S
C1987      C1988   1.404       .  A
C1987      H1996   1.084       .  S
C1988      C1994   1.409       .  A
C1988      C1989   1.414       .  A
C1989      C1991   1.400       .  A
C1989      C1990   1.403       .  A
C1990      H1997   1.084       .  S
C1991      C1992   1.394       .  A
C1991      H1998   1.084       .  S
C1992      C1993   1.406       .  A
C1992      H1999   1.083       .  S
C1993      C1994   1.408       .  A
C1994      H2000   1.084       .  S
C2001      C2002   1.404       .  A
C2001      C2006   1.405       .  A
C2002      C2003   1.395       .  A
C2002      H2011   1.083       .  S
C2003      C2004   1.401       .  A
C2003      H2012   1.083       .  S
C2004      C2010   1.398       .  A
C2004      C2005   1.413       .  A
C2005      C2007   1.403       .  A
C2005      C2006   1.400       .  A
C2006      H2013   1.084       .  S
C2007      C2008   1.397       .  A
C2007      H2014   1.083       .  S
C2008      C2009   1.404       .  A
C2008      H2015   1.083       .  S
C2009      C2010   1.404       .  A
C2010      H2016   1.084       .  S
C2017      C2018   1.405       .  A
C2017      C2022   1.408       .  A
C2018      C2019   1.399       .  A
C2018      H2027   1.083       .  S
C2019      C2020   1.403       .  A
C2019      H2028   1.083       .  S
C2020      C2026   1.406       .  A
C2020      C2021   1.413       .  A
C2021      C2023   1.404       .  A
C2021      C2022   1.408       .  A
C2022      H2029   1.085       .  S
C2023      H2030   1.084       .  S
C2024      H2031   1.083       .  S
C2025      C2026   1.408       .  A
C2026      H2032   1.084       .  S
C2033      C2034   1.405       .  A
C2033      C2038   1.406       .  A
C2034      C2035   1.399       .  A
C2034      H2043   1.083       .  S
C2035      C2036   1.403       .  A
C2035      H2044   1.084       .  S
C2036      C2042   1.406       .  A
C2036      C2037   1.414       .  A
C2037      C2039   1.401       .  A
C2037      C2038   1.403       .  A
C2038      H2045   1.085       .  S
C2039      C2040   1.396       .  A
C2039      H2046   1.084       .  S
C2040      C2041   1.406       .  A
C2040      H2047   1.082       .  S
C2041      C2042   1.405       .  A
C2042      H2048   1.085       .  S
C2049      C2050   1.404       .  A
C2049      C2054   1.407       .  A
C2050      C2051   1.401       .  A
C2050      H2059   1.094       .  S
C2051      C2052   1.405       .  A
C2051      H2060   1.098       .  S
C2053      C2055   1.403       .  A
C2055      C2056   1.398       .  A
C2055      H2062   1.084       .  S
C2056      C2057   1.404       .  A
C2056      H2063   1.084       .  S
C2057      C2058   1.409       .  A
C2065      C2066   1.406       .  A
C2065      C2070   1.403       .  A
C2066      C2067   1.401       .  A
C2066      H2075   1.082       .  S
C2067      C2068   1.404       .  A
C2067      H2076   1.083       .  S
C2068      C2074   1.407       .  A
C2068      C2069   1.414       .  A
C2069      C2071   1.400       .  A
C2069      C2070   1.400       .  A
C2070      H2077   1.086       .  S
C2071      C2072   1.394       .  A
C2071      H2078   1.085       .  S
C2072      C2073   1.403       .  A
C2072      H2079   1.084       .  S
C2073      C2074   1.409       .  A
C2074      H2080   1.083       .  S
C2081      C2082   1.406       .  A
C2081      C2086   1.406       .  A
C2082      C2083   1.404       .  A
C2082      H2091   1.082       .  S
C2083      C2084   1.406       .  A
C2083      H2092   1.083       .  S
C2084      C2090   1.413       .  A
C2084      C2085   1.414       .  A
C2085      C2087   1.400       .  A
C2085      C2086   1.405       .  A
C2086      H2093   1.085       .  S
C2087      C2088   1.396       .  A
C2087      H2094   1.084       .  S
C2088      C2089   1.406       .  A
C2088      H2095   1.084       .  S
C2089      C2090   1.411       .  A
C2090      H2096   1.084       .  S
C2097      C2098   1.405       .  A
C2097      C2102   1.401       .  A
C2098      C2099   1.400       .  A
C2098      H2107   1.083   1_556  S
C2099      C2100   1.404       .  A
C2099      H2108   1.082       .  S
C2100      C2106   1.403       .  A
C2100      C2101   1.414       .  A
C2101      C2103   1.399       .  A
C2101      C2102   1.395       .  A
C2102      H2109   1.085       .  S
C2103      C2104   1.391       .  A
C2103      H2110   1.084       .  S
C2104      C2105   1.403       .  A
C2104      H2111   1.083       .  S
C2105      C2106   1.406       .  A
C2106      H2112   1.083       .  S
C2113      C2114   1.405       .  A
C2113      C2118   1.406       .  A
C2114      C2115   1.396       .  A
C2114      H2123   1.083       .  S
C2115      C2116   1.401       .  A
C2115      H2124   1.083       .  S
C2116      C2122   1.402       .  A
C2116      C2117   1.414       .  A
C2117      C2119   1.403       .  A
C2117      C2118   1.405       .  A
C2118      H2125   1.084       .  S
C2119      C2120   1.398       .  A
C2119      H2126   1.084   1_556  S
C2120      C2121   1.404       .  A
C2120      H2127   1.083       .  S
C2121      C2122   1.405       .  A
C2122      H2128   1.084       .  S
C2129      C2130   1.405       .  A
C2129      C2134   1.408       .  A
C2130      C2131   1.402       .  A
C2130      H2139   1.083       .  S
C2131      C2132   1.405       .  A
C2131      H2140   1.083       .  S
C2132      C2138   1.407       .  A
C2132      C2133   1.412       .  A
C2133      C2135   1.403       .  A
C2133      C2134   1.404       .  A
C2134      H2141   1.085       .  S
C2135      C2136   1.398       .  A
C2135      H2142   1.084       .  S
C2136      C2137   1.403       .  A
C2136      H2143   1.083       .  S
C2137      C2138   1.410       .  A
C2138      H2144   1.084       .  S
C2145      C2146   1.405       .  A
C2145      C2150   1.405       .  A
C2146      C2147   1.394       .  A
C2146      H2155   1.083       .  S
C2147      C2148   1.400       .  A
C2147      H2156   1.084       .  S
C2148      C2154   1.401       .  A
C2148      C2149   1.415       .  A
C2149      C2151   1.402       .  A
C2149      C2150   1.404       .  A
C2150      H2157   1.084       .  S
C2151      C2152   1.398       .  A
C2151      H2158   1.083       .  S
C2152      C2153   1.405       .  A
C2152      H2159   1.083       .  S
C2153      C2154   1.404       .  A
C2154      H2160   1.084       .  S
C2161      C2162   1.405       .  A
C2161      C2166   1.403       .  A
C2162      C2163   1.396       .  A
C2162      H2171   1.083       .  S
C2163      C2164   1.401       .  A
C2163      H2172   1.083       .  S
C2164      C2170   1.400       .  A
C2164      C2165   1.414       .  A
C2165      C2167   1.401       .  A
C2165      C2166   1.400       .  A
C2167      C2168   1.395       .  A
C2167      H2174   1.085       .  S
C2168      C2169   1.403       .  A
C2168      H2175   1.083       .  S
C2169      C2170   1.403       .  A
C2170      H2176   1.084       .  S
C2177      C2178   1.404       .  A
C2177      C2182   1.407       .  A
C2178      C2179   1.398       .  A
C2178      H2187   1.084       .  S
C2179      C2180   1.402       .  A
C2179      H2188   1.084       .  S
C2180      C2186   1.406       .  A
C2180      C2181   1.414       .  A
C2181      C2183   1.402       .  A
C2181      C2182   1.405       .  A
C2182      H2189   1.083       .  S
C2183      C2184   1.398       .  A
C2183      H2190   1.083       .  S
C2184      C2185   1.407       .  A
C2184      H2191   1.082       .  S
C2185      C2186   1.405       .  A
C2186      H2192   1.086       .  S
C2193      C2194   1.405       .  A
C2193      C2198   1.406       .  A
C2194      C2195   1.393       .  A
C2194      H2203   1.083       .  S
C2195      C2196   1.399       .  A
C2195      H2204   1.084       .  S
C2196      C2202   1.401       .  A
C2196      C2197   1.415       .  A
C2197      C2199   1.403       .  A
C2197      C2198   1.406       .  A
C2198      H2205   1.083       .  S
C2199      C2200   1.399       .  A
C2199      H2206   1.083       .  S
C2200      C2201   1.406       .  A
C2200      H2207   1.083       .  S
C2201      C2202   1.403       .  A
C2202      H2208   1.085       .  S
C2209      C2210   1.407       .  A
C2209      C2214   1.402       .  A
C2210      C2211   1.400       .  A
C2210      H2219   1.082       .  S
C2211      C2212   1.403       .  A
C2211      H2220   1.083       .  S
C2212      C2218   1.410       .  A
C2212      C2213   1.416       .  A
C2213      C2215   1.398       .  A
C2213      C2214   1.403       .  A
C2214      H2221   1.086       .  S
C2215      C2216   1.392       .  A
C2215      H2222   1.086       .  S
C2216      C2217   1.405       .  A
C2216      H2223   1.084       .  S
C2217      C2218   1.406       .  A
C2218      H2224   1.083       .  S
C2225      C2226   1.403       .  A
C2225      C2230   1.403       .  A
C2226      C2227   1.396       .  A
C2226      H2235   1.083       .  S
C2227      C2228   1.402       .  A
C2227      H2236   1.084       .  S
C2228      C2234   1.401       .  A
C2228      C2229   1.414       .  A
C2229      C2231   1.401       .  A
C2229      C2230   1.400       .  A
C2230      H2237   1.085       .  S
C2231      C2232   1.395       .  A
C2231      H2238   1.084       .  S
C2232      C2233   1.404       .  A
C2232      H2239   1.083       .  S
C2233      C2234   1.405       .  A
C2234      H2240   1.084       .  S
C2241      C2242   1.406       .  A
C2241      C2246   1.406       .  A
C2242      C2243   1.401       .  A
C2242      H2251   1.083       .  S
C2243      C2244   1.404       .  A
C2243      H2252   1.083       .  S
C2244      C2250   1.410       .  A
C2244      C2245   1.414       .  A
C2245      C2247   1.401       .  A
C2245      C2246   1.406       .  A
C2246      H2253   1.084       .  S
C2247      C2248   1.397       .  A
C2247      H2254   1.083       .  S
C2248      C2249   1.406       .  A
C2249      C2250   1.408       .  A
C2250      H2256   1.084       .  S
C2257      C2262   1.406   1_554  A
C2258      H2267   1.083       .  S
C2259      C2260   1.401       .  A
C2259      H2268   1.083       .  S
C2260      C2266   1.404       .  A
C2260      C2261   1.414       .  A
C2261      C2263   1.403       .  A
C2261      C2262   1.407       .  A
C2262      H2269   1.084       .  S
C2263      C2264   1.399       .  A
C2263      H2270   1.084       .  S
C2264      C2265   1.405       .  A
C2264      H2271   1.083       .  S
C2265      C2266   1.406       .  A
C2266      H2272   1.084       .  S
C2273      C2274   1.406       .  A
C2273      C2278   1.403       .  A
C2274      C2275   1.402       .  A
C2274      H2283   1.083       .  S
C2275      C2276   1.405       .  A
C2275      H2284   1.083       .  S
C2276      C2282   1.408       .  A
C2276      C2277   1.414       .  A
C2277      C2279   1.399       .  A
C2277      C2278   1.400       .  A
C2278      H2285   1.085       .  S
C2279      C2280   1.393       .  A
C2279      H2286   1.084       .  S
C2280      C2281   1.405       .  A
C2280      H2287   1.084       .  S
C2281      C2282   1.408       .  A
C2282      H2288   1.084       .  S
C2289      C2290   1.405       .  A
C2289      C2294   1.406       .  A
C2290      C2291   1.401       .  A
C2290      H2299   1.083       .  S
C2291      C2292   1.405       .  A
C2291      H2300   1.083       .  S
C2292      C2298   1.408       .  A
C2292      C2293   1.413       .  A
C2293      C2295   1.402       .  A
C2293      C2294   1.405       .  A
C2294      H2301   1.085       .  S
C2295      C2296   1.398       .  A
C2295      H2302   1.084       .  S
C2296      C2297   1.404       .  A
C2296      H2303   1.083       .  S
C2297      C2298   1.410       .  A
C2298      H2304   1.083       .  S
C2305      C2306   1.403       .  A
C2305      C2310   1.405       .  A
C2306      C2307   1.398       .  A
C2306      H2315   1.083       .  S
C2307      C2308   1.403       .  A
C2307      H2316   1.084       .  S
C2308      C2314   1.400       .  A
C2308      C2309   1.413       .  A
C2309      C2311   1.402       .  A
C2309      C2310   1.398       .  A
C2310      H2317   1.084       .  S
C2311      C2312   1.395       .  A
C2311      H2318   1.084       .  S
C2312      C2313   1.403       .  A
C2312      H2319   1.083       .  S
C2313      C2314   1.406       .  A
C2314      H2320   1.084       .  S
C2321      C2322   1.405       .  A
C2321      C2326   1.408       .  A
C2322      C2323   1.395       .  A
C2322      H2331   1.084       .  S
C2323      C2324   1.400       .  A
C2323      H2332   1.084       .  S
C2324      C2330   1.403       .  A
C2324      C2325   1.414       .  A
C2325      C2327   1.404       .  A
C2325      C2326   1.408       .  A
C2326      H2333   1.084       .  S
C2327      C2328   1.400       .  A
C2327      H2334   1.084       .  S
C2328      C2329   1.405       .  A
C2328      H2335   1.082       .  S
C2329      C2330   1.404       .  A
C2330      H2336   1.085       .  S
C2337      C2338   1.404       .  A
C2337      C2342   1.404       .  A
C2338      C2339   1.399       .  A
C2338      H2347   1.083       .  S
C2339      C2340   1.403       .  A
C2339      H2348   1.084       .  S
C2340      C2346   1.404       .  A
C2340      C2341   1.414       .  A
C2341      C2343   1.400       .  A
C2341      C2342   1.399       .  A
C2342      H2349   1.084       .  S
C2343      C2344   1.394       .  A
C2343      H2350   1.084       .  S
C2344      C2345   1.404       .  A
C2344      H2351   1.083       .  S
C2345      C2346   1.406       .  A
C2353      C2354   1.404       .  A
C2353      C2358   1.410       .  A
C2354      C2355   1.395       .  A
C2354      H2363   1.083       .  S
C2355      C2356   1.401       .  A
C2355      H2364   1.085       .  S
C2356      C2362   1.404       .  A
C2356      C2357   1.414       .  A
C2357      C2359   1.405       .  A
C2357      C2358   1.410       .  A
C2358      H2365   1.083       .  S
C2359      C2360   1.403       .  A
C2359      H2366   1.083       .  S
C2360      C2361   1.406       .  A
C2360      H2367   1.083       .  S
C2361      C2362   1.406       .  A
C2362      H2368   1.085       .  S
C2369      C2370   1.406       .  A
C2369      C2374   1.407       .  A
C2370      C2371   1.396       .  A
C2370      H2379   1.083       .  S
C2371      C2372   1.401       .  A
C2371      H2380   1.083       .  S
C2372      C2378   1.404       .  A
C2372      C2373   1.414       .  A
C2373      C2375   1.404       .  A
C2373      C2374   1.407       .  A
C2374      H2381   1.084       .  S
C2375      C2376   1.400       .  A
C2375      H2382   1.084       .  S
C2376      C2377   1.405       .  A
C2376      H2383   1.083       .  S
C2377      C2378   1.406       .  A
C2378      H2384   1.084       .  S
C2385      C2386   1.405       .  A
C2385      C2390   1.410       .  A
C2386      C2387   1.400   1_565  A
C2386      H2395   1.083       .  S
C2387      H2396   1.083       .  S
C2388      C2394   1.404   1_554  A
C2389      C2390   1.408       .  A
C2390      H2397   1.084       .  S
C2391      C2392   1.399   1_565  A
C2391      H2398   1.084       .  S
C2392      C2393   1.404       .  A
C2392      H2399   1.083       .  S
C2393      C2394   1.407       .  A
C2394      H2400   1.084   1_556  S
C2401      C2402   1.405       .  A
C2401      C2406   1.407       .  A
C2402      C2403   1.396       .  A
C2402      H2411   1.083       .  S
C2403      C2404   1.401   1_455  A
C2403      H2412   1.083       .  S
C2404      C2410   1.400       .  A
C2404      C2405   1.413   1_655  A
C2405      C2407   1.404   1_455  A
C2405      C2406   1.405       .  A
C2406      H2413   1.085       .  S
C2407      C2408   1.400       .  A
C2407      H2414   1.084       .  S
C2408      C2409   1.404       .  A
C2408      H2415   1.083       .  S
C2409      C2410   1.405       .  A
C2410      H2416   1.085       .  S
C2417      C2418   1.404       .  A
C2417      C2422   1.405       .  A
C2418      C2419   1.393       .  A
C2418      H2427   1.083       .  S
C2419      C2420   1.400       .  A
C2419      H2428   1.083       .  S
C2420      C2426   1.398       .  A
C2420      C2421   1.414       .  A
C2421      C2423   1.403       .  A
C2421      C2422   1.402       .  A
C2422      H2429   1.084       .  S
C2423      C2424   1.398       .  A
C2423      H2430   1.083       .  S
C2424      C2425   1.404       .  A
C2424      H2431   1.083       .  S
C2425      C2426   1.402       .  A
C2426      H2432   1.084       .  S
C2433      C2434   1.405       .  A
C2433      C2438   1.406       .  A
C2434      C2435   1.395       .  A
C2434      H2443   1.083       .  S
C2435      C2436   1.401       .  A
C2435      H2444   1.084       .  S
C2436      C2442   1.403       .  A
C2436      C2437   1.415       .  A
C2437      C2439   1.402       .  A
C2437      C2438   1.406       .  A
C2438      H2445   1.084       .  S
C2439      C2440   1.399       .  A
C2439      H2446   1.083       .  S
C2440      C2441   1.405       .  A
C2441      C2442   1.404       .  A
C2442      H2448   1.084       .  S
C2449      C2450   1.403       .  A
C2449      C2454   1.408       .  A
C2450      C2451   1.390       .  A
C2450      H2459   1.084       .  S
C2451      C2452   1.398   1_655  A
C2451      H2460   1.084       .  S
C2452      C2458   1.397       .  A
C2452      C2453   1.414   1_455  A
C2453      C2455   1.405   1_655  A
C2453      C2454   1.406       .  A
C2454      H2461   1.083       .  S
C2455      C2456   1.401       .  A
C2455      H2462   1.082   1_455  S
C2456      C2457   1.405       .  A
C2456      H2463   1.082       .  S
C2457      C2458   1.401       .  A
C2458      H2464   1.085       .  S
C2465      C2466   1.404       .  A
C2465      C2470   1.406       .  A
C2466      C2467   1.398   1_545  A
C2466      H2475   1.083       .  S
C2467      C2468   1.403       .  A
C2467      H2476   1.083       .  S
C2468      C2474   1.403       .  A
C2468      C2469   1.413       .  A
C2469      C2471   1.403       .  A
C2469      C2470   1.402   1_565  A
C2470      H2477   1.085       .  S
C2471      C2472   1.397       .  A
C2471      H2478   1.084       .  S
C2472      C2473   1.404       .  A
C2472      H2479   1.084       .  S
C2473      C2474   1.407       .  A
C2474      H2480   1.083       .  S
C2481      C2482   1.405       .  A
C2481      C2486   1.408       .  A
C2482      C2483   1.397       .  A
C2482      H2491   1.084       .  S
C2483      C2484   1.401       .  A
C2483      H2492   1.084       .  S
C2484      C2490   1.404       .  A
C2484      C2485   1.414       .  A
C2485      C2487   1.403       .  A
C2485      C2486   1.407       .  A
C2486      H2493   1.083       .  S
C2487      C2488   1.399       .  A
C2487      H2494   1.083       .  S
C2488      C2489   1.405       .  A
C2489      C2490   1.405       .  A
C2490      H2496   1.084       .  S
C2497      C2498   1.406       .  A
C2497      C2502   1.408       .  A
C2498      C2499   1.397       .  A
C2498      H2507   1.083       .  S
C2499      C2500   1.401       .  A
C2499      H2508   1.084       .  S
C2500      C2506   1.406       .  A
C2500      C2501   1.414       .  A
C2501      C2503   1.404       .  A
C2501      C2502   1.411       .  A
C2502      H2509   1.084       .  S
C2503      C2504   1.402       .  A
C2503      H2510   1.083       .  S
C2504      C2505   1.406       .  A
C2504      H2511   1.083       .  S
C2505      C2506   1.407       .  A
C2506      H2512   1.084       .  S
C2513      C2514   1.405       .  A
C2513      C2518   1.403       .  A
C2514      C2515   1.397       .  A
C2514      H2523   1.083       .  S
C2515      C2516   1.402       .  A
C2515      H2524   1.084       .  S
C2516      C2522   1.404       .  A
C2516      C2517   1.415       .  A
C2517      C2519   1.400       .  A
C2517      C2518   1.402       .  A
C2518      H2525   1.085       .  S
C2519      C2520   1.395       .  A
C2519      H2526   1.085       .  S
C2520      C2521   1.405       .  A
C2520      H2527   1.083       .  S
C2521      C2522   1.405       .  A
C2522      H2528   1.084       .  S
C2529      C2530   1.404       .  A
C2529      C2534   1.404       .  A
C2530      C2531   1.400       .  A
C2530      H2539   1.083       .  S
C2531      C2532   1.404       .  A
C2531      H2540   1.084       .  S
C2532      C2538   1.405       .  A
C2532      C2533   1.414       .  A
C2533      C2535   1.400       .  A
C2533      C2534   1.400       .  A
C2534      H2541   1.084       .  S
C2535      C2536   1.394       .  A
C2535      H2542   1.083       .  S
C2536      C2537   1.405       .  A
C2536      H2543   1.083       .  S
C2537      C2538   1.406       .  A
C2545      C2546   1.404       .  A
C2545      C2550   1.407       .  A
C2546      C2547   1.396       .  A
C2546      H2555   1.083       .  S
C2547      C2548   1.402       .  A
C2547      H2556   1.084       .  S
C2548      C2554   1.402       .  A
C2548      C2549   1.413       .  A
C2549      C2551   1.404       .  A
C2549      C2550   1.404       .  A
C2550      H2557   1.084       .  S
C2551      C2552   1.400       .  A
C2551      H2558   1.083       .  S
C2552      C2553   1.404       .  A
C2552      H2559   1.083       .  S
C2553      C2554   1.406       .  A
C2554      H2560   1.085       .  S
C2561      C2562   1.406       .  A
C2561      C2566   1.410       .  A
C2562      C2563   1.397       .  A
C2562      H2571   1.083       .  S
C2563      C2564   1.401       .  A
C2563      H2572   1.084       .  S
C2564      C2570   1.405       .  A
C2564      C2565   1.414       .  A
C2565      C2567   1.405       .  A
C2565      C2566   1.411       .  A
C2566      H2573   1.084       .  S
C2567      C2568   1.403       .  A
C2567      H2574   1.083       .  S
C2568      C2569   1.406       .  A
C2568      H2575   1.082       .  S
C2569      C2570   1.406       .  A
C2570      H2576   1.085       .  S
C2577      C2578   1.405       .  A
C2577      C2582   1.406       .  A
C2578      C2579   1.395       .  A
C2578      H2587   1.083       .  S
C2579      C2580   1.400       .  A
C2579      H2588   1.084       .  S
C2580      C2586   1.401       .  A
C2580      C2581   1.414       .  A
C2581      C2583   1.403       .  A
C2581      C2582   1.404       .  A
C2583      C2584   1.399       .  A
C2584      C2585   1.405       .  A
C2585      C2586   1.404       .  A
C2586      H2592   1.085       .  S
C2593      C2594   1.407       .  A
C2593      C2598   1.404       .  A
C2594      C2595   1.399       .  A
C2594      H2603   1.082       .  S
C2595      C2596   1.402       .  A
C2595      H2604   1.084       .  S
C2596      C2602   1.410       .  A
C2596      C2597   1.416       .  A
C2597      C2599   1.400       .  A
C2597      C2598   1.407       .  A
C2598      H2605   1.085       .  S
C2599      C2600   1.397       .  A
C2599      H2606   1.084       .  S
C2600      C2601   1.408       .  A
C2600      H2607   1.083       .  S
C2601      C2602   1.406       .  A
C2602      H2608   1.085       .  S
C2609      C2610   1.406       .  A
C2609      C2614   1.404       .  A
C2610      C2611   1.396       .  A
C2610      H2619   1.082       .  S
C2611      C2612   1.401       .  A
C2611      H2620   1.084       .  S
C2612      C2618   1.402       .  A
C2612      C2613   1.414       .  A
C2613      C2615   1.402       .  A
C2613      C2614   1.403       .  A
C2614      H2621   1.085       .  S
C2615      C2616   1.397       .  A
C2615      H2622   1.085       .  S
C2616      C2617   1.404       .  A
C2616      H2623   1.083       .  S
C2617      C2618   1.405       .  A
C2618      H2624   1.085       .  S
C2625      C2626   1.406       .  A
C2625      C2630   1.405       .  A
C2626      C2627   1.402       .  A
C2626      H2635   1.083       .  S
C2627      C2628   1.405       .  A
C2627      H2636   1.084       .  S
C2628      C2634   1.410       .  A
C2628      C2629   1.414       .  A
C2629      C2631   1.400       .  A
C2629      C2630   1.403       .  A
C2630      H2637   1.084       .  S
C2631      C2632   1.395       .  A
C2631      H2638   1.084       .  S
C2632      C2633   1.405       .  A
C2632      H2639   1.083       .  S
C2633      C2634   1.409       .  A
C2634      H2640   1.084       .  S
C2641      C2642   1.403       .  A
C2641      C2646   1.407   1_554  A
C2642      C2643   1.394   1_554  A
C2642      H2651   1.083       .  S
C2643      C2644   1.401       .  A
C2643      H2652   1.084       .  S
C2644      C2650   1.399       .  A
C2644      C2645   1.413       .  A
C2645      C2647   1.404       .  A
C2645      C2646   1.403       .  A
C2646      H2653   1.083       .  S
C2647      C2648   1.400       .  A
C2647      H2654   1.083       .  S
C2648      C2649   1.404       .  A
C2648      H2655   1.083       .  S
C2649      C2650   1.404       .  A
C2650      H2656   1.085       .  S
C2657      C2658   1.406       .  A
C2657      C2662   1.412       .  A
C2658      C2659   1.396       .  A
C2658      H2667   1.083       .  S
C2659      C2660   1.400       .  A
C2659      H2668   1.084       .  S
C2660      C2666   1.406       .  A
C2660      C2661   1.414       .  A
C2661      C2663   1.406       .  A
C2661      C2662   1.415       .  A
C2662      H2669   1.084       .  S
C2663      C2664   1.405       .  A
C2663      H2670   1.083       .  S
C2664      C2665   1.407       .  A
C2664      H2671   1.082       .  S
C2665      C2666   1.406       .  A
C2666      H2672   1.085       .  S
C2673      C2674   1.403       .  A
C2673      C2678   1.410       .  A
C2674      C2675   1.397       .  A
C2674      H2683   1.084       .  S
C2675      H2684   1.084       .  S
C2676      C2682   1.403   1_554  A
C2676      C2677   1.413   1_554  A
C2677      C2679   1.406       .  A
C2678      H2685   1.084       .  S
C2679      C2680   1.402       .  A
C2679      H2686   1.083       .  S
C2680      C2681   1.405       .  A
C2680      H2687   1.083       .  S
C2681      C2682   1.407       .  A
C2682      H2688   1.084   1_556  S
C2689      C2690   1.405       .  A
C2689      C2694   1.406       .  A
C2690      C2691   1.396       .  A
C2690      H2699   1.083       .  S
C2691      C2692   1.401   1_655  A
C2691      H2700   1.084   1_655  S
C2692      C2698   1.402       .  A
C2692      C2693   1.414   1_455  A
C2693      C2695   1.403   1_655  A
C2693      C2694   1.404       .  A
C2694      H2701   1.084       .  S
C2695      C2696   1.399       .  A
C2695      H2702   1.083   1_455  S
C2696      C2697   1.405       .  A
C2696      H2703   1.083       .  S
C2697      C2698   1.405       .  A
C2698      H2704   1.084       .  S
C2705      C2706   1.405       .  A
C2705      C2710   1.405       .  A
C2706      C2707   1.398       .  A
C2706      H2715   1.083       .  S
C2707      C2708   1.402       .  A
C2707      H2716   1.084       .  S
C2708      C2714   1.405   1_455  A
C2708      C2709   1.415       .  A
C2709      C2711   1.401   1_455  A
C2709      C2710   1.403       .  A
C2710      H2717   1.084       .  S
C2711      C2712   1.396       .  A
C2711      H2718   1.084   1_655  S
C2712      C2713   1.405       .  A
C2712      H2719   1.083       .  S
C2713      C2714   1.405       .  A
C2714      H2720   1.085       .  S
C2721      C2722   1.405       .  A
C2721      C2726   1.402       .  A
C2722      C2723   1.399       .  A
C2722      H2731   1.083       .  S
C2723      C2724   1.403       .  A
C2723      H2732   1.083       .  S
C2724      C2730   1.405       .  A
C2724      C2725   1.415       .  A
C2725      C2727   1.399       .  A
C2725      C2726   1.399       .  A
C2726      H2733   1.085       .  S
C2727      C2728   1.392       .  A
C2727      H2734   1.085       .  S
C2728      C2729   1.404       .  A
C2728      H2735   1.084       .  S
C2729      C2730   1.406       .  A
C2730      H2736   1.084       .  S
C2737      C2738   1.406       .  A
C2737      C2742   1.410       .  A
C2738      C2739   1.395       .  A
C2739      C2740   1.400       .  A
C2739      H2748   1.084       .  S
C2740      C2746   1.405       .  A
C2740      C2741   1.414       .  A
C2741      C2743   1.405       .  A
C2741      C2742   1.412       .  A
C2742      H2749   1.083       .  S
C2743      C2744   1.404       .  A
C2743      H2750   1.083       .  S
C2744      C2745   1.407       .  A
C2744      H2751   1.082       .  S
C2745      C2746   1.405       .  A
C2746      H2752   1.085       .  S
C2753      C2754   1.403       .  A
C2753      C2758   1.409       .  A
C2754      C2755   1.395       .  A
C2754      H2763   1.084       .  S
C2755      C2756   1.401       .  A
C2755      H2764   1.084       .  S
C2756      C2762   1.401       .  A
C2756      C2757   1.413       .  A
C2757      C2759   1.405       .  A
C2757      C2758   1.406       .  A
C2758      H2765   1.083       .  S
C2759      C2760   1.401       .  A
C2759      H2766   1.083       .  S
C2760      C2761   1.405       .  A
C2760      H2767   1.082       .  S
C2761      C2762   1.404       .  A
C2762      H2768   1.085       .  S
C2769      C2770   1.405       .  A
C2769      C2774   1.406       .  A
C2770      C2771   1.398       .  A
C2770      H2779   1.083       .  S
C2771      C2772   1.402       .  A
C2771      H2780   1.084       .  S
C2772      C2778   1.406       .  A
C2772      C2773   1.415       .  A
C2773      C2775   1.401       .  A
C2773      C2774   1.405       .  A
C2774      H2781   1.083       .  S
C2775      C2776   1.397       .  A
C2775      H2782   1.083       .  S
C2776      C2777   1.405       .  A
C2776      H2783   1.084       .  S
C2777      C2778   1.406       .  A
C2778      H2784   1.084       .  S
C2785      C2786   1.407       .  A
C2785      C2790   1.407       .  A
C2786      C2787   1.396       .  A
C2786      H2795   1.083       .  S
C2787      C2788   1.401       .  A
C2787      H2796   1.083       .  S
C2788      C2794   1.406       .  A
C2788      C2789   1.414       .  A
C2789      C2791   1.404       .  A
C2789      C2790   1.410       .  A
C2790      H2797   1.084       .  S
C2791      C2792   1.401       .  A
C2791      H2798   1.084       .  S
C2792      C2793   1.406       .  A
C2792      H2799   1.083       .  S
C2793      C2794   1.406       .  A
C2794      H2800   1.084       .  S
C2801      C2802   1.404       .  A
C2801      C2806   1.403       .  A
C2802      C2803   1.395       .  A
C2802      H2811   1.083       .  S
C2803      C2804   1.401       .  A
C2803      H2812   1.083       .  S
C2804      C2810   1.398       .  A
C2804      C2805   1.414       .  A
C2805      C2807   1.401       .  A
C2805      C2806   1.399       .  A
C2806      H2813   1.084       .  S
C2807      C2808   1.395       .  A
C2807      H2814   1.084       .  S
C2808      C2809   1.403       .  A
C2809      C2810   1.404       .  A
C2810      H2816   1.084       .  S
C2817      C2818   1.404       .  A
C2817      C2822   1.405       .  A
C2818      C2819   1.394       .  A
C2818      H2827   1.083       .  S
C2819      C2820   1.401       .  A
C2819      H2828   1.083       .  S
C2820      C2826   1.399       .  A
C2820      C2821   1.414       .  A
C2821      C2823   1.403       .  A
C2821      C2822   1.402       .  A
C2822      H2829   1.084       .  S
C2823      C2824   1.398       .  A
C2823      H2830   1.083       .  S
C2824      C2825   1.404       .  A
C2824      H2831   1.083       .  S
C2825      C2826   1.404       .  A
C2826      H2832   1.084       .  S
C2833      C2838   1.406       .  A
C2834      H2843   1.084       .  S
C2835      C2836   1.399       .  A
C2835      H2844   1.084       .  S
C2836      C2842   1.400       .  A
C2836      C2837   1.415       .  A
C2837      C2839   1.403       .  A
C2837      C2838   1.407       .  A
C2838      H2845   1.084       .  S
C2839      C2840   1.400       .  A
C2839      H2846   1.083       .  S
C2840      C2841   1.405       .  A
C2840      H2847   1.083       .  S
C2841      C2842   1.403       .  A
C2842      H2848   1.085       .  S
C2849      C2850   1.404       .  A
C2849      C2854   1.403       .  A
C2850      C2851   1.397       .  A
C2850      H2859   1.082       .  S
C2851      C2852   1.403       .  A
C2851      H2860   1.083       .  S
C2852      C2858   1.402       .  A
C2852      C2853   1.414       .  A
C2853      C2855   1.401       .  A
C2853      C2854   1.399       .  A
C2854      H2861   1.084       .  S
C2855      C2856   1.395       .  A
C2855      H2862   1.084       .  S
C2856      C2857   1.404       .  A
C2856      H2863   1.083       .  S
C2857      C2858   1.405       .  A
C2858      H2864   1.084       .  S
C2865      C2866   1.408       .  A
C2865      C2870   1.403       .  A
C2866      C2867   1.398       .  A
C2866      H2875   1.083       .  S
C2867      C2868   1.401       .  A
C2867      H2876   1.084       .  S
C2868      C2874   1.408       .  A
C2868      C2869   1.416       .  A
C2869      C2871   1.400       .  A
C2869      C2870   1.405       .  A
C2870      H2877   1.085       .  S
C2871      C2872   1.395       .  A
C2871      H2878   1.085       .  S
C2872      C2873   1.406       .  A
C2872      H2879   1.083       .  S
C2873      C2874   1.404       .  A
C2874      H2880   1.085       .  S
