geometry optimzed in LAMMPS
_audit_creation_date              2020-12-01 
_audit_creation_method            'lammps2cif' 
_symmetry_space_group_name_H-M    'P1' 
_symmetry_Int_Tables_number       1 
_symmetry_cell_setting            triclinic 
loop_ 
_symmetry_equiv_pos_as_xyz 
  x,y,z 
_cell_length_a                    38.97979117 
_cell_length_b                    38.99307753591151 
_cell_length_c                    38.99229094185577 
_cell_angle_alpha                 89.99579837996158 
_cell_angle_beta                  89.99718713206634 
_cell_angle_gamma                 90.009674905023 
loop_ 
_atom_site_label 
_atom_site_type_symbol 
_atom_site_fract_x 
_atom_site_fract_y 
_atom_site_fract_z 
_atom_site_charge 
C1          C  0.10277034  0.70835488  0.94125244     0.05700
C2          C  0.08340350  0.68477670  0.96078578    -0.10500
C3          C  0.05244693  0.67121068  0.94783778     0.03200
C4          C  0.04133922  0.68170522  0.91503536    -0.09000
C5          C  0.06075695  0.70545013  0.89575558     0.05700
C6          C  0.09128239  0.71854430  0.90897941    -0.08400
H7          H  0.09239593  0.67699243  0.98591753     0.11300
H8          H  0.01754723  0.67168349  0.90469803     0.08800
H9          H  0.10576117  0.73734273  0.89442469     0.08600
C10         C  0.84053169  0.70558185  0.93948305     0.05700
C11         C  0.86027544  0.68317567  0.95997203    -0.10500
C12         C  0.89219406  0.67083205  0.94822588     0.03200
C13         C  0.90383457  0.68129423  0.91557874    -0.09000
C14         C  0.88389649  0.70367102  0.89520610     0.05700
C15         C  0.85239311  0.71552051  0.90726188    -0.08400
H16         H  0.85086375  0.67541579  0.98496077     0.11300
H17         H  0.92829821  0.67208999  0.90609028     0.08800
H18         H  0.83752231  0.73337042  0.89193695     0.08600
C19         C  0.88253857  0.70539992  0.16401752     0.05700
C20         C  0.85128590  0.71694553  0.15110883    -0.10500
C21         C  0.84006228  0.70627011  0.11891849     0.03200
C22         C  0.86024396  0.68345047  0.09930824    -0.09000
C23         C  0.89190502  0.67132386  0.11200561     0.05700
C24         C  0.90291182  0.68260193  0.14458043    -0.08400
H25         H  0.83609883  0.73509997  0.16575559     0.11300
H26         H  0.85136182  0.67518149  0.07429310     0.08800
H27         H  0.92723567  0.67373479  0.15472443     0.08600
C28         C  0.05982981  0.70685241  0.16375704     0.05700
C29         C  0.09112386  0.71909302  0.15156201    -0.10500
C30         C  0.10401053  0.70762091  0.12026838     0.03200
C31         C  0.08528468  0.68352233  0.10070501    -0.09000
C32         C  0.05348635  0.67087211  0.11257365     0.05700
C33         C  0.04093753  0.68277936  0.14436293    -0.08400
H34         H  0.10512348  0.73825649  0.16610937     0.11300
H35         H  0.09528210  0.67485040  0.07625695     0.08800
H36         H  0.01649504  0.67351803  0.15386272     0.08600
C37         C  0.88291740  0.40536829  0.16342754     0.05700
C38         C  0.90304410  0.42803235  0.14356001    -0.10500
C39         C  0.89079968  0.44046222  0.11183872     0.03200
C40         C  0.85809117  0.42975254  0.10056046    -0.09000
C41         C  0.83824874  0.40698901  0.12060622     0.05700
C42         C  0.85079160  0.39503916  0.15180184    -0.08400
H43         H  0.92808545  0.43593273  0.15271927     0.11300
H44         H  0.84819883  0.43896613  0.07626733     0.08800
H45         H  0.83585688  0.37685237  0.16668289     0.08600
C46         C  0.84031038  0.40351847  0.94228705     0.05700
C47         C  0.85917641  0.42782968  0.96131867    -0.10500
C48         C  0.89088714  0.44015101  0.94909901     0.03200
C49         C  0.90318832  0.42785831  0.91733817    -0.09000
C50         C  0.88406455  0.40362247  0.89833279     0.05700
C51         C  0.85284905  0.39159319  0.91099875    -0.08400
H52         H  0.84938274  0.43686643  0.98572247     0.11300
H53         H  0.92759114  0.43694356  0.90757281     0.08800
H54         H  0.83864957  0.37228841  0.89684314     0.08600
C55         C  0.10660637  0.40620139  0.94134644     0.05700
C56         C  0.09448822  0.39452267  0.90981772    -0.10500
C57         C  0.06257752  0.40515311  0.89772197     0.03200
C58         C  0.04240950  0.42796417  0.91735633    -0.09000
C59         C  0.05424688  0.44011975  0.94932413     0.05700
C60         C  0.08659821  0.42899994  0.96114875    -0.08400
H61         H  0.10956805  0.37638782  0.89504009     0.11300
H62         H  0.01761349  0.43618607  0.90782423     0.08800
H63         H  0.09614743  0.43802832  0.98564946     0.08600
C64         C  0.06050515  0.39905193  0.15712458     0.05700
C65         C  0.04096492  0.42289229  0.13807025    -0.10500
C66         C  0.05481841  0.43850483  0.10848686     0.03200
C67         C  0.08836123  0.42954390  0.09827963    -0.09000
C68         C  0.10746704  0.40529142  0.11719220     0.05700
C69         C  0.09344163  0.39030072  0.14642677    -0.08400
H70         H  0.01529987  0.42956656  0.14644596     0.11300
H71         H  0.09935361  0.44102793  0.07546662     0.08800
H72         H  0.10801128  0.37128205  0.16059608     0.08600
O73         O  0.03917712  0.61307225  0.95939012    -0.72800
O74         O  0.01205804  0.65428229  0.99122458    -0.51700
C75         C  0.03313875  0.64458864  0.96743713     0.81000
O76         O  0.90217555  0.49834950  0.96260255    -0.57400
O77         O  0.93340362  0.45704802  0.99028271    -0.50400
C78         C  0.91014941  0.46680957  0.96866078     0.73000
O79         O  0.90402471  0.61299194  0.96155288    -0.71900
O80         O  0.93388309  0.65426234  0.99078760    -0.52500
C81         C  0.91142460  0.64449457  0.96826613     0.79000
O82         O  0.04127919  0.49810570  0.96147224    -0.57100
O83         O  0.01196465  0.45675873  0.99114497    -0.50200
C84         C  0.03444721  0.46655621  0.96868950     0.75600
Zr85       Zr  0.02272235  0.55556646  0.97920202     2.54700
O86         O  0.02044962  0.55423730  0.91682521    -0.77600
O87         O  0.08512757  0.55628380  0.98229017    -0.91000
Zr88       Zr  0.92137296  0.55567808  0.98043845     2.64700
O89         O  0.92428455  0.55618351  0.91805821    -0.96000
O90         O  0.85900533  0.55699616  0.98395019    -0.78100
O91         O  0.97210893  0.58950886  0.97962699    -0.81400
O92         O  0.97195706  0.52176568  0.97915763    -2.16100
O93         O  0.04372242  0.49692152  0.09559001    -0.64800
O94         O  0.01109802  0.45604142  0.06890015    -0.49400
C95         C  0.03525853  0.46546149  0.08962481     0.74000
O96         O  0.90528476  0.61328353  0.10033608    -0.57700
O97         O  0.93368982  0.65458765  0.06974526    -0.49700
C98         C  0.91176286  0.64483600  0.09274943     0.75800
O99         O  0.90430629  0.49834759  0.09992290    -0.69100
O100        O  0.93243294  0.45695894  0.06921419    -0.47800
C101        C  0.91055863  0.46680311  0.09225915     0.77200
O102        O  0.04158000  0.61259952  0.09953063    -0.64400
O103        O  0.01194313  0.65403035  0.07028470    -0.51600
C104        C  0.03435188  0.64420659  0.09277209     0.75500
Zr105      Zr  0.02399723  0.55501688  0.08049935     2.77500
O106        O  0.02072711  0.55250013  0.14283177    -0.95200
O107        O  0.08643366  0.55644493  0.07979184    -0.76000
Zr108      Zr  0.92265715  0.55566905  0.08164301     2.70100
O109        O  0.92433949  0.55485788  0.14405022    -0.77300
O110        O  0.86029465  0.55639824  0.07830541    -0.96300
Zr111      Zr  0.97290201  0.62371368  0.03060904     2.21500
Zr112      Zr  0.97226610  0.48734211  0.03009891     2.11100
O113        O  0.97312676  0.52144026  0.08131953    -2.45000
O114        O  0.97352668  0.58932540  0.08162310    -0.77000
O115        O  0.02351024  0.52137039  0.02964812    -0.69200
O116        O  0.92173733  0.58961408  0.03109195    -2.30200
O117        O  0.02397002  0.58925898  0.02998222    -2.26400
O118        O  0.92133002  0.52166730  0.03101033    -0.71000
H119        H  0.97177855  0.50740228  0.95899989     0.81000
H120        H  0.90169410  0.60418512  0.03133745     0.82100
H121        H  0.97324251  0.50682581  0.10129752     0.84300
H122        H  0.04409652  0.60369021  0.02984768     0.81900
H123        H  0.85396285  0.56819400  0.00616721     0.45000
H124        H  0.85404774  0.53415774  0.06775683     0.43900
H125        H  0.94874605  0.55874596  0.14984987     0.43600
H126        H  0.00893541  0.53060837  0.14797950     0.41500
H127        H  0.09276711  0.54747867  0.05690265     0.44700
H128        H  0.09096015  0.57834332  0.99342721     0.39400
H129        H  0.99833815  0.56528705  0.91101370     0.45600
H130        H  0.93489813  0.53400063  0.91174214     0.42000
H131        H  0.04470595  0.54867244  0.15028573     0.46900
H132        H  0.09266116  0.55912615  0.95820539     0.45600
H133        H  0.90011859  0.55409926  0.91052426     0.45800
H134        H  0.85259742  0.55442229  0.10242649     0.46100
C135        C  0.62412233  0.96507713  0.15988908     0.05700
C136        C  0.60152912  0.98554064  0.14037826    -0.10500
C137        C  0.58879255  0.97366795  0.10869566     0.03200
C138        C  0.59909591  0.94098260  0.09705210    -0.09000
C139        C  0.62176506  0.92077225  0.11680345     0.05700
C140        C  0.63395312  0.93289328  0.14806522    -0.08400
H141        H  0.59400790  0.01061797  0.14973644     0.11300
H142        H  0.58972129  0.93144463  0.07267830     0.08800
H143        H  0.65216634  0.91772849  0.16267462     0.08600
C144        C  0.62378072  0.96705709  0.89788391     0.05700
C145        C  0.60114371  0.98704378  0.91778285    -0.10500
C146        C  0.58917934  0.97492544  0.94965353     0.03200
C147        C  0.60043239  0.94250499  0.96120402    -0.09000
C148        C  0.62321322  0.92275879  0.94107358     0.05700
C149        C  0.63462258  0.93515064  0.90960783    -0.08400
H150        H  0.59281650  0.01188663  0.90847267     0.11300
H151        H  0.59154743  0.93273021  0.98566897     0.08800
H152        H  0.65272615  0.92027972  0.89457261     0.08600
C153        C  0.62351268  0.19092274  0.94227545     0.05700
C154        C  0.63595236  0.17831640  0.91120985    -0.10500
C155        C  0.62515160  0.14642321  0.89918209     0.03200
C156        C  0.60156466  0.12682908  0.91843642    -0.09000
C157        C  0.58867807  0.13925881  0.94985247     0.05700
C158        C  0.59987916  0.17152279  0.96161951    -0.08400
H159        H  0.65472858  0.19296483  0.89679525     0.11300
H160        H  0.59332407  0.10198827  0.90905104     0.08800
H161        H  0.59040875  0.18139858  0.98582576     0.08600
C162        C  0.61833797  0.19379084  0.12022393     0.05700
C163        C  0.59536433  0.17402668  0.10039008    -0.10500
C164        C  0.58740196  0.14003531  0.10991850     0.03200
C165        C  0.60266636  0.12638040  0.13969666    -0.09000
C166        C  0.62522741  0.14647763  0.15962008     0.05700
C167        C  0.63277371  0.18001149  0.14986912    -0.08400
H168        H  0.58428799  0.18478436  0.07727041     0.11300
H169        H  0.59694431  0.10027693  0.14738673     0.08800
H170        H  0.65106331  0.19494051  0.16461741     0.08600
C171        C  0.32056877  0.18741210  0.94011498     0.05700
C172        C  0.34437799  0.16829821  0.95962013    -0.10500
C173        C  0.35663954  0.13643476  0.94760690     0.03200
C174        C  0.34451414  0.12417052  0.91576235    -0.09000
C175        C  0.32072628  0.14352734  0.89642779     0.05700
C176        C  0.30897675  0.17491459  0.90874412    -0.08400
H177        H  0.35322802  0.17811548  0.98407900     0.11300
H178        H  0.35346015  0.09967601  0.90613096     0.08800
H179        H  0.29008393  0.18930808  0.89422161     0.08600
C180        C  0.32240469  0.96660344  0.89654683     0.05700
C181        C  0.34597168  0.98646438  0.91562716    -0.10500
C182        C  0.35781454  0.97494758  0.94785050     0.03200
C183        C  0.34560705  0.94324622  0.96042166    -0.09000
C184        C  0.32214610  0.92356021  0.94102651     0.05700
C185        C  0.31084155  0.93535759  0.90931455    -0.08400
H186        H  0.35479158  0.01085707  0.90561217     0.11300
H187        H  0.35421226  0.93401924  0.98519493     0.08800
H188        H  0.29208104  0.92062385  0.89495492     0.08600
C189        C  0.32286701  0.96730320  0.16252205     0.05700
C190        C  0.34640640  0.98686273  0.14312519    -0.10500
C191        C  0.35856890  0.97470720  0.11128401     0.03200
C192        C  0.34692596  0.94253661  0.09944242    -0.09000
C193        C  0.32343580  0.92311291  0.11904505     0.05700
C194        C  0.31167916  0.93560843  0.15039071    -0.08400
H195        H  0.35497362  0.01155419  0.15260790     0.11300
H196        H  0.35585704  0.93281908  0.07497074     0.08800
H197        H  0.29288613  0.92108300  0.16490955     0.08600
C198        C  0.32183972  0.18824739  0.11884651     0.05700
C199        C  0.34467782  0.16835453  0.09897061    -0.10500
C200        C  0.35734950  0.13685598  0.11148643     0.03200
C201        C  0.34667254  0.12571885  0.14424895    -0.09000
C202        C  0.32357745  0.14560035  0.16388318     0.05700
C203        C  0.31146770  0.17672393  0.15107869    -0.08400
H204        H  0.35263437  0.17739803  0.07390902     0.11300
H205        H  0.35606780  0.10155750  0.15428931     0.08800
H206        H  0.29317643  0.19159889  0.16586858     0.08600
O207        O  0.53097391  0.98628486  0.09610706    -0.72800
O208        O  0.57229637  0.01730351  0.06824980    -0.51700
C209        C  0.56249189  0.99380004  0.08960927     0.81000
O210        O  0.41593889  0.98791273  0.96004175    -0.57400
O211        O  0.37447753  0.01697288  0.98982982    -0.50400
C212        C  0.38433690  0.99471167  0.96719664     0.73000
O213        O  0.53115344  0.98743085  0.96173932    -0.71900
O214        O  0.57233527  0.01748936  0.99094140    -0.52500
C215        C  0.56265381  0.99456246  0.96892181     0.79000
O216        O  0.41650786  0.98756196  0.09873937    -0.57100
O217        O  0.37497432  0.01657959  0.06901403    -0.50200
C218        C  0.38492643  0.99435381  0.09166837     0.75600
Zr219      Zr  0.47351833  0.00548780  0.07935586     2.54700
O220        O  0.47267793  0.94348136  0.07207537    -0.77600
O221        O  0.47476426  0.00422862  0.14179248    -0.91000
Zr222      Zr  0.47344828  0.00613945  0.97845386     2.64700
O223        O  0.47469927  0.94377626  0.98124204    -0.96000
O224        O  0.47412522  0.00958096  0.91609803    -0.78100
O225        O  0.50752120  0.00591153  0.02896000    -0.81400
O226        O  0.43938646  0.00534945  0.02896145    -2.16100
O227        O  0.41535077  0.12400442  0.09924579    -0.64800
O228        O  0.37410033  0.09546261  0.06875199    -0.49400
C229        C  0.38382302  0.11734330  0.09183026     0.74000
O230        O  0.53053164  0.12689510  0.96225936    -0.57700
O231        O  0.57195730  0.09665613  0.99091497    -0.49700
C232        C  0.56211221  0.11965385  0.96908616     0.75800
O233        O  0.41502066  0.12443975  0.95999167    -0.69100
O234        O  0.37389796  0.09500075  0.98988774    -0.47800
C235        C  0.38347736  0.11724980  0.96713379     0.77200
O236        O  0.52970460  0.12740799  0.09658488    -0.64400
O237        O  0.57144139  0.09644991  0.06926504    -0.51600
C238        C  0.56132119  0.11994596  0.09048439     0.75500
Zr239      Zr  0.47273780  0.10675348  0.08007534     2.77500
O240        O  0.47143247  0.16922504  0.08094251    -0.95200
O241        O  0.47470039  0.09969117  0.14206575    -0.76000
Zr242      Zr  0.47288307  0.10701083  0.97842907     2.70100
O243        O  0.47096344  0.16937791  0.97636216    -0.77300
O244        O  0.47524561  0.09897188  0.91649826    -0.96300
Zr245      Zr  0.54143042  0.05703192  0.02961457     2.21500
Zr246      Zr  0.40482836  0.05621960  0.02935011     2.11100
O247        O  0.43909449  0.10736135  0.02925215    -2.45000
O248        O  0.50657249  0.10768224  0.02934827    -0.77000
O249        O  0.43916616  0.05593283  0.08024452    -0.69200
O250        O  0.50735596  0.05681506  0.97831404    -2.30200
O251        O  0.50706644  0.05642983  0.08055468    -2.26400
O252        O  0.43899756  0.05642293  0.97825081    -0.71000
H253        H  0.42502108  0.98518250  0.02892651     0.81000
H254        H  0.52191119  0.05691170  0.95825863     0.82100
H255        H  0.42461757  0.12742467  0.02926555     0.84300
H256        H  0.52145431  0.05643617  0.10071395     0.81900
H257        H  0.45281550  0.02201676  0.91006641     0.45000
H258        H  0.45126937  0.09434310  0.90950575     0.43900
H259        H  0.48452758  0.17683119  0.99649604     0.43600
H260        H  0.45156814  0.17560182  0.06646158     0.41500
H261        H  0.45768717  0.08147822  0.14696856     0.44700
H262        H  0.49629586  0.01607092  0.14822689     0.39400
H263        H  0.49402446  0.93815856  0.05937556     0.45600
H264        H  0.45471573  0.93744258  0.99557489     0.42000
H265        H  0.46433397  0.17522130  0.10458093     0.46900
H266        H  0.47888807  0.97984945  0.14759726     0.45600
H267        H  0.46845364  0.93619129  0.95782915     0.45800
H268        H  0.48029269  0.12205730  0.90720903     0.46100
C269        C  0.10307961  0.96449747  0.68139715     0.05700
C270        C  0.09110859  0.93234930  0.69140322    -0.10500
C271        C  0.06015681  0.91987014  0.67858107     0.03200
C272        C  0.04085035  0.93982176  0.65524507    -0.09000
C273        C  0.05258118  0.97249779  0.64487271     0.05700
C274        C  0.08390351  0.98463780  0.65823857    -0.08400
H275        H  0.10553964  0.91733063  0.70986759     0.11300
H276        H  0.01675436  0.93006971  0.64537322     0.08800
H277        H  0.09335027  0.00965532  0.65061301     0.08600
C278        C  0.84293754  0.96661022  0.68358301     0.05700
C279        C  0.86277368  0.98673989  0.66088671    -0.10500
C280        C  0.89393713  0.97405521  0.64751177     0.03200
C281        C  0.90485252  0.94101372  0.65752959    -0.09000
C282        C  0.88492683  0.92117046  0.68040003     0.05700
C283        C  0.85414720  0.93407433  0.69311983    -0.08400
H284        H  0.85387725  0.01201557  0.65347006     0.11300
H285        H  0.92873202  0.93080717  0.64759057     0.08800
H286        H  0.83922455  0.91903041  0.71117461     0.08600
C287        C  0.88560587  0.19074464  0.67922115     0.05700
C288        C  0.85557797  0.17764159  0.69345154    -0.10500
C289        C  0.84396383  0.14517556  0.68419326     0.03200
C290        C  0.86270019  0.12525967  0.66044639    -0.09000
C291        C  0.89319238  0.13808602  0.64577721     0.05700
C292        C  0.90443131  0.17113388  0.65530315    -0.08400
H293        H  0.84162516  0.19244442  0.71245258     0.11300
H294        H  0.85359551  0.09994637  0.65341293     0.08800
H295        H  0.92790839  0.18136621  0.64446259     0.08600
C296        C  0.06261901  0.19071614  0.67822946     0.05700
C297        C  0.04287361  0.17165701  0.65454937    -0.10500
C298        C  0.05384890  0.13895403  0.64357627     0.03200
C299        C  0.08499719  0.12591221  0.65650984    -0.09000
C300        C  0.10476124  0.14519640  0.67990981     0.05700
C301        C  0.09342028  0.17738038  0.69064337    -0.08400
H302        H  0.01887522  0.18201611  0.64506492     0.11300
H303        H  0.09380286  0.10080958  0.64842777     0.08800
H304        H  0.10816226  0.19170110  0.70940920     0.08600
C305        C  0.88092057  0.18700678  0.37971832     0.05700
C306        C  0.90078546  0.16716561  0.40262687    -0.10500
C307        C  0.88841321  0.13548637  0.41504803     0.03200
C308        C  0.85587870  0.12412811  0.40404643    -0.09000
C309        C  0.83628941  0.14404514  0.38101047     0.05700
C310        C  0.84883046  0.17534147  0.36918228    -0.08400
H311        H  0.92580760  0.17626833  0.41064468     0.11300
H312        H  0.84602326  0.09973997  0.41306393     0.08800
H313        H  0.83408938  0.19009213  0.35074305     0.08600
C314        C  0.83650460  0.96566163  0.38190923     0.05700
C315        C  0.85624547  0.98537849  0.40504352    -0.10500
C316        C  0.88831380  0.97330842  0.41674533     0.03200
C317        C  0.90004324  0.94117375  0.40494091    -0.09000
C318        C  0.88013760  0.92166881  0.38180395     0.05700
C319        C  0.84854978  0.93400186  0.37057400    -0.08400
H320        H  0.84686349  0.01009909  0.41362962     0.11300
H321        H  0.92471567  0.93156198  0.41343334     0.08800
H322        H  0.83380697  0.91942665  0.35199610     0.08600
C323        C  0.10479613  0.96812968  0.37770918     0.05700
C324        C  0.08573065  0.98744743  0.40170698    -0.14700
C325        C  0.05345573  0.97577319  0.41321376     0.03200
C326        C  0.04079901  0.94444650  0.40036290    -0.09000
C327        C  0.06009504  0.92524409  0.37651944     0.05700
C328        C  0.09186197  0.93720364  0.36532860    -0.08400
H329        H  0.09585199  0.01153590  0.41120772     0.11300
H330        H  0.01603946  0.93505498  0.40887277     0.08800
H331        H  0.10622559  0.92276224  0.34635869     0.08600
C332        C  0.06159636  0.18256031  0.37507608     0.05700
C333        C  0.04118294  0.16252132  0.39722798    -0.10500
C334        C  0.05473004  0.13292274  0.41289576     0.03200
C335        C  0.08896538  0.12354767  0.40552058    -0.09000
C336        C  0.10902783  0.14341466  0.38274992     0.05700
C337        C  0.09529878  0.17296837  0.36807144    -0.08400
H338        H  0.01502305  0.17024252  0.40267823     0.11300
H339        H  0.09974575  0.10065968  0.41703906     0.08800
H340        H  0.11051894  0.18793175  0.35020116     0.08600
O341        O  0.90616633  0.98581811  0.58926679    -0.72800
O342        O  0.93488237  0.01687347  0.62997065    -0.51700
C343        C  0.91305709  0.99359462  0.62067480     0.81000
O344        O  0.04242942  0.98888186  0.47149755    -0.57400
O345        O  0.01017032  0.01596782  0.43056450    -0.50400
C346        C  0.03408189  0.99495032  0.44004829     0.73000
O347        O  0.04034508  0.98557063  0.58680923    -0.71900
O348        O  0.01228188  0.01617484  0.62834319    -0.52500
C349        C  0.03367873  0.99275515  0.61842190     0.79000
O350        O  0.90217784  0.98606596  0.47443976    -0.57100
O351        O  0.93083048  0.01527505  0.43230468    -0.50200
C352        C  0.90844149  0.99298898  0.44271183     0.75600
Zr353      Zr  0.92273418  0.00382382  0.53117016     2.54700
O354        O  0.93083569  0.94191748  0.53063327    -0.77600
O355        O  0.86031493  0.00161369  0.53229681    -0.91000
Zr356      Zr  0.02383907  0.00567727  0.52939955     2.64700
O357        O  0.02413634  0.94321617  0.52850067    -0.96000
O358        O  0.08601418  0.01156613  0.53097538    -0.78100
O359        O  0.97381343  0.00478442  0.56423370    -0.81400
O360        O  0.97264834  0.00403101  0.49622058    -2.16100
O361        O  0.90091760  0.12230437  0.47290904    -0.64800
O362        O  0.93113341  0.09396153  0.43130268    -0.49400
C363        C  0.90813020  0.11579102  0.44130090     0.74000
O364        O  0.04013443  0.12664741  0.58567922    -0.57700
O365        O  0.01260094  0.09605266  0.62758215    -0.49700
C366        C  0.03404819  0.11930409  0.61736469     0.75800
O367        O  0.04210987  0.12117064  0.47090391    -0.69100
O368        O  0.01060537  0.09315593  0.43004153    -0.47800
C369        C  0.03450083  0.11426671  0.43949185     0.77200
O370        O  0.90453705  0.12505758  0.58760203    -0.64400
O371        O  0.93418762  0.09538100  0.62870494    -0.51600
C372        C  0.91194958  0.11812376  0.61908418     0.75500
Zr373      Zr  0.92086249  0.10529094  0.53014217     2.77500
O374        O  0.92271915  0.16773608  0.52883218    -0.95200
O375        O  0.85859040  0.10141219  0.53274310    -0.76000
Zr376      Zr  0.02187928  0.10690695  0.52873757     2.70100
O377        O  0.01369202  0.16882154  0.52653683    -0.77300
O378        O  0.08430574  0.10875620  0.53039282    -0.96300
Zr379      Zr  0.97327604  0.05598104  0.59808409     2.21500
Zr380      Zr  0.97098020  0.05485601  0.46155156     2.11100
O381        O  0.97090818  0.10625304  0.49530438    -2.45000
O382        O  0.97187465  0.10667613  0.56348567    -0.77000
O383        O  0.92067452  0.05423137  0.49682897    -0.69200
O384        O  0.02389849  0.05651905  0.56303715    -2.30200
O385        O  0.92173241  0.05489480  0.56446315    -2.26400
O386        O  0.02243175  0.05603147  0.49517816    -0.71000
H387        H  0.97268843  0.98382692  0.48190426     0.81000
H388        H  0.04424750  0.05690563  0.57717325     0.82100
H389        H  0.97053601  0.12615278  0.48057044     0.84300
H390        H  0.90180803  0.05475814  0.57917502     0.81900
H391        H  0.09167143  0.02560375  0.51058638     0.45000
H392        H  0.09173705  0.09139791  0.51342157     0.43900
H393        H  0.01066764  0.17428402  0.50192578     0.43600
H394        H  0.93459400  0.17358446  0.50715915     0.41500
H395        H  0.85287018  0.08106975  0.51866489     0.44700
H396        H  0.85360031  0.01604480  0.55208119     0.39400
H397        H  0.94640348  0.93730005  0.55016292     0.45600
H398        H  0.01053382  0.93684120  0.50802789     0.42000
H399        H  0.89861030  0.17476767  0.52501361     0.46900
H400        H  0.85484355  0.97788401  0.53950466     0.45600
H401        H  0.04802957  0.93700139  0.52252306     0.45800
H402        H  0.09046764  0.13104469  0.51989014     0.46100
C403        C  0.94070226  0.36152236  0.23437628    -0.08300
C404        C  0.97176755  0.37269191  0.22121764    -0.02200
C405        C  0.00256980  0.35783032  0.23076634    -0.08300
C406        C  0.00307060  0.33188620  0.25615993     0.12600
C407        C  0.97148739  0.32098613  0.27100169    -0.00100
C408        C  0.93995282  0.33551086  0.25968234     0.12400
C409        C  0.90897079  0.32342898  0.27366688    -0.10100
C410        C  0.90884865  0.29767596  0.29868428    -0.10100
C411        C  0.93970723  0.28322179  0.31049209     0.12400
C412        C  0.97136591  0.29489638  0.29642400    -0.00100
C413        C  0.03381250  0.31642156  0.26688673    -0.10200
C414        C  0.03371718  0.29087090  0.29207229    -0.10200
C415        C  0.00285772  0.27988075  0.30718831     0.12600
C416        C  0.00220706  0.25400475  0.33259575    -0.08300
C417        C  0.97125233  0.24364584  0.34670410    -0.02200
C418        C  0.94021358  0.25711879  0.33575603    -0.08300
H419        H  0.88464233  0.33397756  0.26538985     0.09900
H420        H  0.88443081  0.28919660  0.30886944     0.09900
H421        H  0.05814525  0.32417443  0.25594691     0.10100
H422        H  0.05799857  0.27974454  0.29970489     0.10100
H423        H  0.97180764  0.39231018  0.20134311     0.06500
H424        H  0.97121974  0.22330690  0.36582911     0.06500
C425        C  0.28323285  0.08778826  0.23728183    -0.08300
C426        C  0.29490990  0.05673643  0.22448456    -0.02200
C427        C  0.28159548  0.02567100  0.23549741    -0.08300
C428        C  0.25621727  0.02501089  0.26149775     0.12600
C429        C  0.24502312  0.05655913  0.27617523    -0.00100
C430        C  0.25826407  0.08826572  0.26371976     0.12400
C431        C  0.24600351  0.11912034  0.27781320    -0.10100
C432        C  0.22152293  0.11897635  0.30412979    -0.10100
C433        C  0.20841087  0.08797448  0.31709202     0.12400
C434        C  0.22000448  0.05642790  0.30272469    -0.00100
C435        C  0.24154834  0.99412847  0.27296737    -0.10200
C436        C  0.21660253  0.99403785  0.29878363    -0.10200
C437        C  0.20577510  0.02479421  0.31418141     0.12600
C438        C  0.18084922  0.02520110  0.34058168    -0.08300
C439        C  0.17128843  0.05600055  0.35552973    -0.02200
C440        C  0.18369002  0.08719638  0.34377378    -0.08300
H441        H  0.25552797  0.14356619  0.26869432     0.09900
H442        H  0.21299566  0.14331322  0.31443950     0.09900
H443        H  0.24937107  0.96982851  0.26203105     0.10100
H444        H  0.20604193  0.96966554  0.30691187     0.10100
H445        H  0.31389686  0.05681164  0.20400747     0.06500
H446        H  0.15169783  0.05583764  0.37543244     0.06500
C447        C  0.18202915  0.36801123  0.99851695    -0.08300
C448        C  0.17210317  0.38214342  0.02959296    -0.02200
C449        C  0.18325913  0.36878088  0.06060406    -0.08300
C450        C  0.20757796  0.34183956  0.06107705     0.12600
C451        C  0.21965523  0.32833904  0.02938092    -0.00100
C452        C  0.20626336  0.34096484  0.99782365     0.12400
C453        C  0.21716221  0.32599739  0.96688349    -0.10100
C454        C  0.24150246  0.29960826  0.96676347    -0.10100
C455        C  0.25557797  0.28726436  0.99759369     0.12400
C456        C  0.24420950  0.30141744  0.02927860    -0.00100
C457        C  0.21981315  0.32782673  0.09197306    -0.10200
C458        C  0.24407356  0.30137472  0.09187791    -0.10200
C459        C  0.25676377  0.28803446  0.06088486     0.12600
C460        C  0.28145607  0.26140616  0.06019716    -0.08300
C461        C  0.29344531  0.24916899  0.02905854    -0.02200
C462        C  0.28052850  0.26089297  0.99807530    -0.08300
H463        H  0.20713982  0.33489807  0.94255647     0.09900
H464        H  0.24942124  0.28900931  0.94234436     0.09900
H465        H  0.21087819  0.33751140  0.11642216     0.10100
H466        H  0.25303092  0.29151681  0.11624936     0.10100
H467        H  0.15289625  0.40240859  0.02971396     0.06500
H468        H  0.31220686  0.22849165  0.02896555     0.06500
C469        C  0.66982463  0.02367416  0.22876372    -0.08300
C470        C  0.65900822  0.05472155  0.21523420    -0.02200
C471        C  0.67108809  0.08574044  0.22764133    -0.08300
C472        C  0.69481473  0.08629826  0.25505927     0.12600
C473        C  0.70602116  0.05465509  0.26945590    -0.00100
C474        C  0.69386408  0.02302264  0.25591096     0.12400
C475        C  0.70612833  0.99205797  0.26975357    -0.10100
C476        C  0.72966030  0.99206600  0.29685916    -0.10100
C477        C  0.74127546  0.02303037  0.31123271     0.12400
C478        C  0.72943234  0.05465927  0.29732572    -0.00100
C479        C  0.70760471  0.11723128  0.26841365    -0.10200
C480        C  0.73064760  0.11723637  0.29588355    -0.10200
C481        C  0.74157322  0.08631026  0.31085404     0.12600
C482        C  0.76451147  0.08578533  0.33893021    -0.08300
C483        C  0.77476678  0.05478583  0.35296794    -0.02200
C484        C  0.76453380  0.02369078  0.33911086    -0.08300
H485        H  0.69751705  0.96764303  0.25969131     0.09900
H486        H  0.73838700  0.96766648  0.30685361     0.09900
H487        H  0.69966758  0.14163257  0.25778671     0.10100
H488        H  0.73967148  0.14165032  0.30557264     0.10100
H489        H  0.64082152  0.05473852  0.19404756     0.06500
H490        H  0.79309675  0.05486815  0.37402832     0.06500
C491        C  0.93905863  0.74506562  0.23849114    -0.08300
C492        C  0.97019181  0.73230250  0.22696850    -0.02200
C493        C  0.00117175  0.74616676  0.23752488    -0.08300
C494        C  0.00164244  0.77270738  0.26227404     0.12600
C495        C  0.96996284  0.78497949  0.27573581    -0.00100
C496        C  0.93835502  0.77138172  0.26349370     0.12400
C497        C  0.90735092  0.78464075  0.27631204    -0.10100
C498        C  0.90727037  0.81060988  0.30110809    -0.10100
C499        C  0.93819245  0.82431708  0.31363815     0.12400
C500        C  0.96987583  0.81157138  0.30062703    -0.00100
C501        C  0.03250514  0.78749142  0.27362353    -0.10200
C502        C  0.03242031  0.81371459  0.29808263    -0.10200
C503        C  0.00147057  0.82595210  0.31196709     0.12600
C504        C  0.00085939  0.85243266  0.33672579    -0.08300
C505        C  0.96985095  0.86379938  0.34987749    -0.02200
C506        C  0.93876431  0.85070380  0.33859761    -0.08300
H507        H  0.88296874  0.77475858  0.26738638     0.09900
H508        H  0.88282964  0.81992880  0.31046288     0.09900
H509        H  0.05692600  0.77871178  0.26371324     0.10100
H510        H  0.05678673  0.82430750  0.30619885     0.10100
H511        H  0.97026285  0.71244817  0.20734181     0.06500
H512        H  0.96986967  0.88451125  0.36859592     0.06500
C513        C  0.27949943  0.02355215  0.82411394    -0.08300
C514        C  0.29259295  0.05464019  0.83523666    -0.02200
C515        C  0.27993609  0.08561653  0.82335056    -0.08300
C516        C  0.25429018  0.08609253  0.79766199     0.12600
C517        C  0.24113300  0.05437898  0.78519565    -0.00100
C518        C  0.25326874  0.02281519  0.79902034     0.12400
C519        C  0.23867974  0.99187098  0.78763864    -0.10100
C520        C  0.21306461  0.99176224  0.76249637    -0.10100
C521        C  0.20132988  0.02258892  0.74789436     0.12400
C522        C  0.21525290  0.05426060  0.75955591    -0.00100
C523        C  0.24130175  0.11697194  0.78435030    -0.10200
C524        C  0.21589886  0.11685186  0.75899307    -0.10200
C525        C  0.20261308  0.08584784  0.74624632     0.12600
C526        C  0.17671952  0.08517009  0.72079055    -0.08300
C527        C  0.16462281  0.05401229  0.70862929    -0.02200
C528        C  0.17576177  0.02304024  0.72214424    -0.08300
H529        H  0.24714882  0.96755255  0.79804506     0.09900
H530        H  0.20263103  0.96734655  0.75434011     0.09900
H531        H  0.25090240  0.14141682  0.79338781     0.10100
H532        H  0.20674463  0.14121779  0.74930730     0.10100
H533        H  0.31214822  0.05475971  0.85517694     0.06500
H534        H  0.14443901  0.05391520  0.68934163     0.06500
C535        C  0.94258418  0.36343036  0.82499676    -0.08300
C536        C  0.97360222  0.37621243  0.83677110    -0.02200
C537        C  0.00474563  0.36397948  0.82473038    -0.08300
C538        C  0.00546618  0.33888109  0.79849429     0.12600
C539        C  0.97386876  0.32662720  0.78485058    -0.00100
C540        C  0.94213236  0.33848533  0.79858592     0.12400
C541        C  0.91127615  0.32496174  0.78571597    -0.10100
C542        C  0.91142253  0.30077494  0.75918717    -0.10100
C543        C  0.94243390  0.28932927  0.74472933     0.12400
C544        C  0.97401575  0.30200377  0.75797939    -0.00100
C545        C  0.03646977  0.32554417  0.78575894    -0.10200
C546        C  0.03659862  0.30104456  0.75951310    -0.10200
C547        C  0.00574006  0.28930984  0.74500117     0.12600
C548        C  0.00529602  0.26501768  0.71798165    -0.08300
C549        C  0.97427779  0.25456021  0.70407393    -0.02200
C550        C  0.94315191  0.26527233  0.71754944    -0.08300
H551        H  0.88681924  0.33329445  0.79592056     0.09900
H552        H  0.88706114  0.29127776  0.74979784     0.09900
H553        H  0.06083469  0.33417584  0.79593588     0.10100
H554        H  0.06105145  0.29160979  0.75030867     0.10100
H555        H  0.97351922  0.39513588  0.85729740     0.06500
H556        H  0.97434139  0.23548509  0.68368919     0.06500
C557        C  0.17510752  0.75036970  0.99995756    -0.08300
C558        C  0.16357353  0.73772960  0.03110852    -0.02200
C559        C  0.17614048  0.74981307  0.06208708    -0.08300
C560        C  0.20245046  0.77488380  0.06245235     0.12600
C561        C  0.21541335  0.78744883  0.03067110    -0.00100
C562        C  0.20142265  0.77540470  0.99913855     0.12400
C563        C  0.21388257  0.78889807  0.96809687    -0.10100
C564        C  0.23985491  0.81370470  0.96786794    -0.10100
C565        C  0.25418476  0.82579013  0.99867701     0.12400
C566        C  0.24177564  0.81264356  0.03043651    -0.00100
C567        C  0.21587506  0.78793334  0.09327218    -0.10200
C568        C  0.24176352  0.81282507  0.09303904    -0.10200
C569        C  0.25511174  0.82538194  0.06198377     0.12600
C570        C  0.28126591  0.85059206  0.06117577    -0.08300
C571        C  0.29381006  0.86215621  0.03001644    -0.02200
C572        C  0.28042052  0.85093112  0.99907933    -0.08300
H573        H  0.20362541  0.78023021  0.94378404     0.09900
H574        H  0.24877626  0.82333771  0.94339035     0.09900
H575        H  0.20642280  0.77887028  0.11776655     0.10100
H576        H  0.25142351  0.82212915  0.11735996     0.10100
H577        H  0.14298804  0.71885587  0.03127064     0.06500
H578        H  0.31351051  0.88195669  0.02986717     0.06500
C579        C  0.76676908  0.36455304  0.00146446    -0.08300
C580        C  0.77779643  0.37797463  0.03244551    -0.02200
C581        C  0.76495795  0.36636444  0.06352241    -0.08300
C582        C  0.73869767  0.34126104  0.06413296     0.12600
C583        C  0.72594234  0.32832862  0.03246206    -0.00100
C584        C  0.74045601  0.33960719  0.00088529     0.12400
C585        C  0.72849190  0.32550836  0.96996490    -0.10100
C586        C  0.70230724  0.30104158  0.96986441    -0.10100
C587        C  0.68720285  0.28998996  0.00067730     0.12400
C588        C  0.69923387  0.30356170  0.03234985    -0.00100
C589        C  0.72508172  0.32856240  0.09504008    -0.10200
C590        C  0.69874344  0.30411425  0.09492378    -0.10200
C591        C  0.68520241  0.29164231  0.06389872     0.12600
C592        C  0.65823242  0.26728370  0.06309115    -0.08300
C593        C  0.64595207  0.25541699  0.03186235    -0.02200
C594        C  0.66055570  0.26542719  0.00101994    -0.08300
H595        H  0.73922985  0.33350019  0.94562765     0.09900
H596        H  0.69371805  0.29099348  0.94543908     0.09900
H597        H  0.73458425  0.33770393  0.11948509     0.10100
H598        H  0.68880064  0.29520954  0.11928442     0.10100
H599        H  0.79835983  0.39686872  0.03242763     0.06500
H600        H  0.62584917  0.23604196  0.03164493     0.06500
C601        C  0.94131587  0.74181415  0.82007463    -0.08300
C602        C  0.97248828  0.72920414  0.83164847    -0.02200
C603        C  0.00347263  0.74234893  0.82015713    -0.08300
C604        C  0.00390440  0.76774825  0.79420882     0.12600
C605        C  0.97217406  0.77995914  0.78083252    -0.00100
C606        C  0.94057959  0.76742446  0.79429009     0.12400
C607        C  0.90957982  0.78113794  0.78195618    -0.10100
C608        C  0.90946134  0.80649029  0.75650968    -0.10100
C609        C  0.94033254  0.81880298  0.74247411     0.12400
C610        C  0.97204908  0.80554262  0.75485234    -0.00100
C611        C  0.03477474  0.78151290  0.78160772    -0.10200
C612        C  0.03465233  0.80661477  0.75594520    -0.10200
C613        C  0.00365490  0.81879964  0.74212781     0.12600
C614        C  0.00295513  0.84422857  0.71618605    -0.08300
C615        C  0.97182797  0.85546802  0.70323164    -0.02200
C616        C  0.94082659  0.84433118  0.71662085    -0.08300
H617        H  0.88521865  0.77220886  0.79189056     0.09900
H618        H  0.88501417  0.81626574  0.74765167     0.09900
H619        H  0.05923378  0.77274964  0.79143781     0.10100
H620        H  0.05901443  0.81637106  0.74682607     0.10100
H621        H  0.97262864  0.71006528  0.85197841     0.06500
H622        H  0.97174586  0.87551064  0.68378759     0.06500
C623        C  0.66602981  0.08742205  0.82664998    -0.08300
C624        C  0.65209691  0.05645296  0.83716870    -0.02200
C625        C  0.66494743  0.02533885  0.82569406    -0.08300
C626        C  0.69167803  0.02458860  0.80119241     0.12600
C627        C  0.70527449  0.05615008  0.78892788    -0.00100
C628        C  0.69276072  0.08784502  0.80209333     0.12400
C629        C  0.70748444  0.11868377  0.79061671    -0.10100
C630        C  0.73377163  0.11855268  0.76620044    -0.10100
C631        C  0.74617285  0.08757563  0.75255080     0.12400
C632        C  0.73200043  0.05600379  0.76419631    -0.00100
C633        C  0.70535148  0.99354793  0.78891151    -0.10200
C634        C  0.73159427  0.99340034  0.76442523    -0.10200
C635        C  0.74504049  0.02428681  0.75157870     0.12600
C636        C  0.77140136  0.02480768  0.72660964    -0.08300
C637        C  0.78405529  0.05582977  0.71479418    -0.02200
C638        C  0.77255282  0.08687010  0.72766200    -0.08300
H639        H  0.69855570  0.14312167  0.80033005     0.09900
H640        H  0.74426531  0.14289457  0.75790576     0.09900
H641        H  0.69559530  0.96918272  0.79800967     0.10100
H642        H  0.74122507  0.96894599  0.75544864     0.10100
H643        H  0.63199166  0.05651808  0.85654513     0.06500
H644        H  0.80462663  0.05578647  0.69590546     0.06500
C645        C  0.76828470  0.74767930  0.99755844    -0.08300
C646        C  0.77994849  0.73501365  0.02866679    -0.02200
C647        C  0.76818800  0.74776952  0.05969423    -0.08300
C648        C  0.74237813  0.77329700  0.06020078     0.12600
C649        C  0.72898552  0.78556236  0.02850580    -0.00100
C650        C  0.74248958  0.77322338  0.99689211     0.12400
C651        C  0.73001553  0.78687593  0.96592710    -0.10100
C652        C  0.70409711  0.81172046  0.96586440    -0.10100
C653        C  0.68971711  0.82350533  0.99675642     0.12400
C654        C  0.70251124  0.81057484  0.02842779    -0.00100
C655        C  0.72976527  0.78698254  0.09108926    -0.10200
C656        C  0.70364962  0.81160189  0.09100578    -0.10200
C657        C  0.68935508  0.82327939  0.06003366     0.12600
C658        C  0.66235249  0.84751569  0.05935771    -0.08300
C659        C  0.64908642  0.85850361  0.02829873    -0.02200
C660        C  0.66294564  0.84802388  0.99731759    -0.08300
H661        H  0.74009642  0.77818772  0.94154970     0.09900
H662        H  0.69501863  0.82136159  0.94144981     0.09900
H663        H  0.73981459  0.77841752  0.11552341     0.10100
H664        H  0.69440135  0.82119755  0.11537412     0.10100
H665        H  0.80009839  0.71568777  0.02873242     0.06500
H666        H  0.62879740  0.87769628  0.02827043     0.06500
C667        C  0.03140505  0.23459224  0.34420198    -0.10700
C668        C  0.04756040  0.21216847  0.35805280    -0.12300
C669        C  0.14204086  0.13159330  0.37075743    -0.10700
C670        C  0.16567960  0.11646622  0.35758665    -0.12300
C671        C  0.16045400  0.99629785  0.35138921    -0.10700
C672        C  0.13657322  0.98094352  0.36374403    -0.12300
C673        C  0.04640076  0.89440761  0.36151406    -0.10700
C674        C  0.03022322  0.87154666  0.34842153    -0.12300
C675        C  0.80544308  0.97900516  0.36690287    -0.10700
C676        C  0.78275772  0.99454064  0.35268739    -0.12300
C677        C  0.89337197  0.89064164  0.36662940    -0.10700
C678        C  0.90923119  0.86822806  0.35233290    -0.12300
C679        C  0.91059232  0.24000087  0.34987725    -0.10700
C680        C  0.89453025  0.21777226  0.36427520    -0.12300
C681        C  0.80499636  0.13095734  0.36640605    -0.10700
C682        C  0.78244108  0.11510027  0.35242448    -0.12300
C683        C  0.03450441  0.24591425  0.70558915    -0.10700
C684        C  0.04999007  0.22252837  0.69241127    -0.12300
C685        C  0.13548998  0.13104500  0.69494957    -0.10700
C686        C  0.15818550  0.11461864  0.70815654    -0.12300
C687        C  0.89850818  0.22291547  0.69202154    -0.10700
C688        C  0.91402644  0.24640846  0.70483586    -0.12300
C689        C  0.81387231  0.13175019  0.70091425    -0.10700
C690        C  0.79133729  0.11611860  0.71521241    -0.12300
C691        C  0.89695888  0.88856839  0.69313767    -0.10700
C692        C  0.91178939  0.86424077  0.70527862    -0.12300
C693        C  0.81212610  0.97987559  0.69916742    -0.10700
C694        C  0.78941310  0.99538763  0.71336368    -0.12300
C695        C  0.13394511  0.97766764  0.69686813    -0.10700
C696        C  0.15681606  0.99364956  0.71021307    -0.12300
C697        C  0.04726692  0.88773455  0.69175065    -0.10700
C698        C  0.03201019  0.86383706  0.70426196    -0.12300
C699        C  0.30958815  0.13285085  0.19575928    -0.10700
C700        C  0.29621764  0.11727186  0.21899582    -0.12300
C701        C  0.29381321  0.24251819  0.08953703    -0.10700
C702        C  0.30699806  0.21939698  0.10539090    -0.12300
C703        C  0.30761498  0.98077682  0.19344542    -0.10700
C704        C  0.29384946  0.99647241  0.21633015    -0.12300
C705        C  0.29459918  0.86899847  0.09036350    -0.10700
C706        C  0.30859687  0.89187053  0.10586198    -0.12300
C707        C  0.30718847  0.97933123  0.86537204    -0.10700
C708        C  0.29274076  0.99443053  0.84256375    -0.12300
C709        C  0.30710905  0.89254746  0.95444801    -0.10700
C710        C  0.29312625  0.86958931  0.96980734    -0.12300
C711        C  0.30579197  0.21868382  0.95316871    -0.10700
C712        C  0.29247113  0.24186628  0.96873848    -0.12300
C713        C  0.30609445  0.13038280  0.86510526    -0.10700
C714        C  0.29257051  0.11494980  0.84193380    -0.12300
C715        C  0.64439692  0.24946757  0.09241046    -0.10700
C716        C  0.63098757  0.22632355  0.10799849    -0.12300
C717        C  0.65793168  0.11535549  0.20992138    -0.10700
C718        C  0.64291927  0.13197400  0.18860828    -0.12300
C719        C  0.63721347  0.22254002  0.95553016    -0.10700
C720        C  0.64934471  0.24588295  0.97175346    -0.12300
C721        C  0.65374296  0.11674863  0.84553425    -0.10700
C722        C  0.64036914  0.13285414  0.86832759    -0.12300
C723        C  0.63730746  0.89092140  0.95346140    -0.10700
C724        C  0.65061777  0.86727193  0.96831373    -0.12300
C725        C  0.63828487  0.98021470  0.86664142    -0.10700
C726        C  0.65180499  0.99603195  0.84381805    -0.12300
C727        C  0.65546717  0.99414318  0.21198967    -0.10700
C728        C  0.64028435  0.97824106  0.19030112    -0.12300
C729        C  0.64918961  0.86594188  0.08850654    -0.10700
C730        C  0.63557508  0.88907881  0.10384131    -0.12300
C731        C  0.03140553  0.36889551  0.21043035    -0.10700
C732        C  0.04670995  0.38247260  0.18718801    -0.12300
C733        C  0.14021561  0.39311068  0.10512699    -0.10700
C734        C  0.16418750  0.38092110  0.08983070    -0.12300
C735        C  0.13847123  0.39252034  0.95427048    -0.10700
C736        C  0.16220941  0.37988854  0.96962646    -0.12300
C737        C  0.04963662  0.39030622  0.86639856    -0.10700
C738        C  0.03405723  0.37671009  0.84335512    -0.12300
C739        C  0.80930625  0.38871620  0.95595481    -0.10700
C740        C  0.78626075  0.37592939  0.97217208    -0.12300
C741        C  0.89744043  0.38885070  0.86710735    -0.10700
C742        C  0.91319269  0.37555097  0.84397411    -0.12300
C743        C  0.89597093  0.39019408  0.19448381    -0.10700
C744        C  0.91134027  0.37577065  0.21711907    -0.12300
C745        C  0.78307779  0.37951865  0.09289470    -0.10700
C746        C  0.80634854  0.39309126  0.10811723    -0.12300
C747        C  0.04618065  0.72121188  0.19499769    -0.10700
C748        C  0.03036694  0.73421194  0.21821740    -0.12300
C749        C  0.13511827  0.72294159  0.10724409    -0.10700
C750        C  0.15794788  0.73689102  0.09161242    -0.12300
C751        C  0.89471943  0.71940313  0.19600675    -0.10700
C752        C  0.90987701  0.73249533  0.21960251    -0.12300
C753        C  0.78649673  0.73493669  0.08914002    -0.10700
C754        C  0.80914860  0.72119246  0.10514076    -0.12300
C755        C  0.89676677  0.71701550  0.86314452    -0.10700
C756        C  0.91217312  0.72967996  0.83942829    -0.12300
C757        C  0.80945322  0.72086856  0.95248079    -0.10700
C758        C  0.78670210  0.73476343  0.96821273    -0.12300
C759        C  0.15612393  0.73788781  0.97076406    -0.10700
C760        C  0.13333345  0.72407417  0.95498855    -0.12300
C761        C  0.03274571  0.73098383  0.83971456    -0.10700
C762        C  0.04821045  0.71873349  0.86357814    -0.12300
loop_ 
_geom_bond_atom_site_label_1 
_geom_bond_atom_site_label_2 
_geom_bond_distance 
_geom_bond_site_symmetry_2 
_ccdc_geom_bond_type 
C1            C2   1.412       .  A
C1            C6   1.394       .  A
C1          C760   1.443       .  S
C2            C3   1.411       .  A
C2            H7   1.084       .  S
C3            C4   1.411       .  A
C3           C75   1.493       .  S
C4            C5   1.412       .  A
C4            H8   1.084       .  S
C5            C6   1.394       .  A
C5          C762   1.443       .  S
C6            H9   1.085       .  S
C10          C11   1.412       .  A
C10          C15   1.394       .  A
C10         C757   1.442       .  S
C11          C12   1.411       .  A
C11          H16   1.084       .  S
C12          C13   1.412       .  A
C12          C81   1.492       .  S
C13          C14   1.413       .  A
C13          H17   1.084       .  S
C14          C15   1.394       .  A
C14         C755   1.444       .  S
C15          H18   1.085       .  S
C19          C20   1.393       .  A
C19          C24   1.413       .  A
C19         C751   1.442       .  S
C20          C21   1.393       .  A
C20          H25   1.085       .  S
C21          C22   1.413       .  A
C21         C754   1.442       .  S
C22          C23   1.411       .  A
C22          H26   1.084       .  S
C23          C24   1.411       .  A
C23          C98   1.493       .  S
C24          H27   1.084       .  S
C28          C29   1.393       .  A
C28          C33   1.413       .  A
C28         C747   1.442       .  S
C29          C30   1.393       .  A
C29          H34   1.085       .  S
C30          C31   1.413       .  A
C30         C749   1.444       .  S
C31          C32   1.412       .  A
C31          H35   1.084       .  S
C32          C33   1.411       .  A
C32         C104   1.494       .  S
C33          H36   1.084       .  S
C37          C38   1.413       .  A
C37          C42   1.391       .  A
C37         C743   1.441       .  S
C38          C39   1.412       .  A
C38          H43   1.084       .  S
C39          C40   1.412       .  A
C39         C101   1.494       .  S
C40          C41   1.413       .  A
C40          H44   1.084       .  S
C41          C42   1.391       .  A
C41         C746   1.441       .  S
C42          H45   1.085       .  S
C46          C47   1.411       .  A
C46          C51   1.394       .  A
C46         C739   1.441       .  S
C47          C48   1.409       .  A
C47          H52   1.084       .  S
C48          C49   1.412       .  A
C48          C78   1.492       .  S
C49          C50   1.413       .  A
C49          H53   1.084       .  S
C50          C51   1.394       .  A
C50         C741   1.444       .  S
C51          H54   1.085       .  S
C55          C56   1.394       .  A
C55          C60   1.412       .  A
C55         C735   1.443       .  S
C56          C57   1.393       .  A
C56          H61   1.085       .  S
C57          C58   1.413       .  A
C57         C737   1.443       .  S
C58          C59   1.411       .  A
C58          H62   1.084       .  S
C59          C60   1.411       .  A
C59          C84   1.493       .  S
C60          H63   1.084       .  S
C64          C65   1.413       .  A
C64          C69   1.392       .  A
C64         C732   1.443       .  S
C65          C66   1.412       .  A
C65          H70   1.084       .  S
C66          C67   1.411       .  A
C66          C95   1.492       .  S
C67          C68   1.412       .  A
C67          H71   1.084       .  S
C68          C69   1.393       .  A
C68         C733   1.441       .  S
C69          H72   1.085       .  S
O73         Zr85   2.457       .  S
O73          C75   1.290       .  A
O74        Zr111   2.471   1_456  S
O74          C75   1.296       .  A
O76         Zr88   2.458       .  S
O76          C78   1.290       .  A
O77        Zr112   2.470   1_556  S
O77          C78   1.295       .  A
O79         Zr88   2.448       .  S
O79          C81   1.289       .  A
O80        Zr111   2.479   1_556  S
O80          C81   1.297       .  A
O82         Zr85   2.454       .  S
O82          C84   1.290       .  A
O83        Zr112   2.475   1_456  S
O83          C84   1.296       .  A
Zr85         O86   2.434       .  S
Zr85         O87   2.436       .  S
Zr85         O91   2.376   1_455  S
Zr85         O92   2.377   1_455  S
Zr85        O115   2.376   1_556  S
Zr85        O117   2.377   1_556  S
O86         H129   0.990   1_455  S
O87         H128   0.990       .  S
O87         H132   0.990       .  S
Zr88         O89   2.435       .  S
Zr88         O90   2.435       .  S
Zr88         O92   2.375       .  S
Zr88         O91   2.377       .  S
Zr88        O116   2.378   1_556  S
Zr88        O118   2.376   1_556  S
O89         H130   0.990       .  S
O89         H133   0.990       .  S
O90         H123   0.990   1_556  S
O91        Zr111   2.394   1_556  S
O92        Zr112   2.397   1_556  S
O92         H119   0.965       .  S
O93        Zr105   2.464       .  S
O93          C95   1.291       .  A
O94        Zr112   2.464   1_455  S
O94          C95   1.294       .  A
O96        Zr108   2.457       .  S
O96          C98   1.290       .  A
O97        Zr111   2.473       .  S
O97          C98   1.296       .  A
O99        Zr108   2.452       .  S
O99         C101   1.289       .  A
O100       Zr112   2.478       .  S
O100        C101   1.297       .  A
O102       Zr105   2.462       .  S
O102        C104   1.291       .  A
O103       Zr111   2.471   1_455  S
O103        C104   1.296       .  A
Zr105       O106   2.436       .  S
Zr105       O107   2.435       .  S
Zr105       O113   2.376   1_455  S
Zr105       O114   2.380   1_455  S
Zr105       O117   2.380       .  S
Zr105       O115   2.378       .  S
O106        H126   0.990       .  S
O106        H131   0.990       .  S
O107        H127   0.990       .  S
Zr108       O109   2.434       .  S
Zr108       O110   2.435       .  S
Zr108       O114   2.378       .  S
Zr108       O113   2.378       .  S
Zr108       O118   2.379       .  S
Zr108       O116   2.374       .  S
O109        H125   0.990       .  S
O110        H124   0.990       .  S
O110        H134   0.990       .  S
Zr111       O114   2.399       .  S
Zr111       O116   2.397       .  S
Zr111       O117   2.402   1_655  S
Zr112       O113   2.400       .  S
Zr112       O115   2.398   1_655  S
Zr112       O118   2.395       .  S
O113        H121   0.965       .  S
O116        H120   0.966       .  S
O117        H122   0.965       .  S
C135        C136   1.411       .  A
C135        C140   1.391       .  A
C135        C728   1.438       .  S
C136        C137   1.410       .  A
C136        H141   1.084   1_565  S
C137        C138   1.411       .  A
C137        C209   1.490       .  S
C138        C139   1.413       .  A
C138        H142   1.084       .  S
C139        C140   1.391       .  A
C139        C730   1.440       .  S
C140        H143   1.086       .  S
C144        C145   1.410       .  A
C144        C149   1.391       .  A
C144        C725   1.438       .  S
C145        C146   1.409       .  A
C145        H150   1.084   1_565  S
C146        C147   1.412       .  A
C146        C215   1.490       .  S
C147        C148   1.413       .  A
C147        H151   1.084       .  S
C148        C149   1.392       .  A
C148        C723   1.441       .  S
C149        H152   1.085       .  S
C153        C154   1.394       .  A
C153        C158   1.410       .  A
C153        C719   1.439       .  S
C154        C155   1.394       .  A
C154        H159   1.085       .  S
C155        C156   1.412       .  A
C155        C722   1.442       .  S
C156        C157   1.410       .  A
C156        H160   1.084       .  S
C157        C158   1.408       .  A
C157        C232   1.490       .  S
C158        H161   1.084       .  S
C162        C163   1.412       .  A
C162        C167   1.393       .  A
C162        C716   1.442       .  S
C163        C164   1.411       .  A
C163        H168   1.084       .  S
C164        C165   1.409       .  A
C164        C238   1.490       .  S
C165        C166   1.411       .  A
C165        H169   1.084       .  S
C166        C167   1.393       .  A
C166        C718   1.440       .  S
C167        H170   1.085       .  S
C171        C172   1.413       .  A
C171        C176   1.392       .  A
C171        C711   1.442       .  S
C172        C173   1.411       .  A
C172        H177   1.084       .  S
C173        C174   1.412       .  A
C173        C235   1.495       .  S
C174        C175   1.414       .  A
C174        H178   1.084       .  S
C175        C176   1.392       .  A
C175        C713   1.442       .  S
C176        H179   1.085       .  S
C180        C181   1.413       .  A
C180        C185   1.391       .  A
C180        C707   1.441       .  S
C181        C182   1.412       .  A
C181        H186   1.084   1_565  S
C182        C183   1.412       .  A
C182        C212   1.494       .  S
C183        C184   1.413       .  A
C183        H187   1.084       .  S
C184        C185   1.391       .  A
C184        C709   1.442       .  S
C185        H188   1.085       .  S
C189        C190   1.413       .  A
C189        C194   1.393       .  A
C189        C703   1.443       .  S
C190        C191   1.411       .  A
C190        H195   1.084   1_565  S
C191        C192   1.412       .  A
C191        C218   1.492       .  S
C192        C193   1.413       .  A
C192        H196   1.084       .  S
C193        C194   1.393       .  A
C193        C706   1.443       .  S
C194        H197   1.085       .  S
C198        C199   1.412       .  A
C198        C203   1.395       .  A
C198        C702   1.444       .  S
C199        C200   1.411       .  A
C199        H204   1.084       .  S
C200        C201   1.412       .  A
C200        C229   1.494       .  S
C201        C202   1.413       .  A
C201        H205   1.084       .  S
C202        C203   1.395       .  A
C202        C699   1.445       .  S
C203        H206   1.085       .  S
O207       Zr219   2.450   1_565  S
O207        C209   1.288       .  A
O208       Zr245   2.473       .  S
O208        C209   1.296   1_545  A
O210       Zr222   2.459   1_565  S
O210        C212   1.291       .  A
O211       Zr246   2.473   1_556  S
O211        C212   1.296   1_545  A
O213       Zr222   2.453   1_565  S
O213        C215   1.290       .  A
O214       Zr245   2.470   1_556  S
O214        C215   1.296   1_545  A
O216       Zr219   2.449   1_565  S
O216        C218   1.289       .  A
O217       Zr246   2.477       .  S
O217        C218   1.297   1_545  A
Zr219       O220   2.435   1_545  S
Zr219       O221   2.436       .  S
Zr219       O225   2.370       .  S
Zr219       O226   2.373       .  S
Zr219       O249   2.380       .  S
Zr219       O251   2.378       .  S
O220        H263   0.990       .  S
O221        H262   0.990       .  S
O221        H266   0.990   1_545  S
Zr222       O223   2.435   1_545  S
Zr222       O224   2.435       .  S
Zr222       O226   2.375   1_556  S
Zr222       O225   2.375   1_556  S
Zr222       O250   2.377       .  S
Zr222       O252   2.377       .  S
O223        H264   0.990       .  S
O223        H267   0.990       .  S
O224        H257   0.990       .  S
O225       Zr245   2.392       .  S
O226       Zr246   2.398       .  S
O226        H253   0.965   1_545  S
O227       Zr239   2.453       .  S
O227        C229   1.289       .  A
O228       Zr246   2.477       .  S
O228        C229   1.297       .  A
O230       Zr242   2.459       .  S
O230        C232   1.291       .  A
O231       Zr245   2.466   1_556  S
O231        C232   1.295       .  A
O233       Zr242   2.463       .  S
O233        C235   1.291       .  A
O234       Zr246   2.472   1_556  S
O234        C235   1.296       .  A
O236       Zr239   2.448       .  S
O236        C238   1.288       .  A
O237       Zr245   2.474       .  S
O237        C238   1.296       .  A
Zr239       O240   2.437       .  S
Zr239       O241   2.434       .  S
Zr239       O247   2.377       .  S
Zr239       O248   2.378       .  S
Zr239       O251   2.375       .  S
Zr239       O249   2.375       .  S
O240        H260   0.990       .  S
O240        H265   0.990       .  S
O241        H261   0.990       .  S
Zr242       O243   2.434       .  S
Zr242       O244   2.437       .  S
Zr242       O248   2.381   1_556  S
Zr242       O247   2.379   1_556  S
Zr242       O252   2.374       .  S
Zr242       O250   2.374       .  S
O243        H259   0.990       .  S
O244        H258   0.990       .  S
O244        H268   0.990       .  S
Zr245       O248   2.397       .  S
Zr245       O250   2.401   1_554  S
Zr245       O251   2.396       .  S
Zr246       O247   2.400       .  S
Zr246       O249   2.394       .  S
Zr246       O252   2.397   1_554  S
O247        H255   0.965       .  S
O250        H254   0.966       .  S
O251        H256   0.966       .  S
C269        C270   1.393       .  A
C269        C274   1.411       .  A
C269        C695   1.441       .  S
C270        C271   1.394       .  A
C270        H275   1.085       .  S
C271        C272   1.414       .  A
C271        C697   1.444       .  S
C272        C273   1.413       .  A
C272        H276   1.084       .  S
C273        C274   1.409       .  A
C273        C349   1.494       .  S
C274        H277   1.084   1_565  S
C278        C279   1.413       .  A
C278        C283   1.392       .  A
C278        C693   1.442       .  S
C279        C280   1.412       .  A
C279        H284   1.084   1_565  S
C280        C281   1.412       .  A
C280        C343   1.494       .  S
C281        C282   1.413       .  A
C281        H285   1.084       .  S
C282        C283   1.392       .  A
C282        C691   1.443       .  S
C283        H286   1.085       .  S
C287        C288   1.392       .  A
C287        C292   1.412       .  A
C287        C687   1.441       .  S
C288        C289   1.392       .  A
C288        H293   1.085       .  S
C289        C290   1.412       .  A
C289        C689   1.440       .  S
C290        C291   1.411       .  A
C290        H294   1.084       .  S
C291        C292   1.411       .  A
C291        C372   1.491       .  S
C292        H295   1.084       .  S
C296        C297   1.413       .  A
C296        C301   1.395       .  A
C296        C684   1.445       .  S
C297        C298   1.412       .  A
C297        H302   1.084       .  S
C298        C299   1.410       .  A
C298        C366   1.492       .  S
C299        C300   1.411       .  A
C299        H303   1.084       .  S
C300        C301   1.395       .  A
C300        C685   1.443       .  S
C301        H304   1.085       .  S
C305        C306   1.413       .  A
C305        C310   1.393       .  A
C305        C680   1.443       .  S
C306        C307   1.412       .  A
C306        H311   1.084       .  S
C307        C308   1.410       .  A
C307        C363   1.493       .  S
C308        C309   1.412       .  A
C308        H312   1.084       .  S
C309        C310   1.393       .  A
C309        C681   1.440       .  S
C310        H313   1.085       .  S
C314        C315   1.413       .  A
C314        C319   1.393       .  A
C314        C675   1.442       .  S
C315        C316   1.412       .  A
C315        H320   1.084   1_565  S
C316        C317   1.411       .  A
C316        C352   1.493       .  S
C317        C318   1.412       .  A
C317        H321   1.084       .  S
C318        C319   1.393       .  A
C318        C677   1.442       .  S
C319        H322   1.085       .  S
C323        C324   1.413       .  A
C323        C328   1.393       .  A
C323        C672   1.442       .  S
C324        C325   1.411       .  A
C324        H329   1.084   1_565  S
C325        C326   1.409       .  A
C325        C346   1.491       .  S
C326        C327   1.411       .  A
C326        H330   1.084       .  S
C327        C328   1.393       .  A
C327        C673   1.440       .  S
C328        H331   1.085       .  S
C332        C333   1.410       .  A
C332        C337   1.393       .  A
C332        C668   1.440       .  S
C333        C334   1.409       .  A
C333        H338   1.084       .  S
C334        C335   1.413       .  A
C334        C369   1.492       .  S
C335        C336   1.414       .  A
C335        H339   1.084       .  S
C336        C337   1.394       .  A
C336        C669   1.445       .  S
C337        H340   1.085       .  S
O341       Zr353   2.458   1_565  S
O341        C343   1.290       .  A
O342       Zr379   2.472       .  S
O342        C343   1.296   1_545  A
O344       Zr356   2.460   1_565  S
O344        C346   1.291       .  A
O345       Zr380   2.469   1_455  S
O345        C346   1.295   1_545  A
O347       Zr356   2.458   1_565  S
O347        C349   1.291       .  A
O348       Zr379   2.473   1_455  S
O348        C349   1.296   1_545  A
O350       Zr353   2.453   1_565  S
O350        C352   1.290       .  A
O351       Zr380   2.476       .  S
O351        C352   1.297   1_545  A
Zr353       O354   2.435   1_545  S
Zr353       O355   2.435       .  S
Zr353       O359   2.372       .  S
Zr353       O360   2.375       .  S
Zr353       O383   2.380       .  S
Zr353       O385   2.378       .  S
O354        H397   0.990       .  S
O355        H396   0.990       .  S
O355        H400   0.990   1_545  S
Zr356       O357   2.436   1_545  S
Zr356       O358   2.435       .  S
Zr356       O360   2.379   1_455  S
Zr356       O359   2.377   1_455  S
Zr356       O384   2.377       .  S
Zr356       O386   2.375       .  S
O357        H398   0.990       .  S
O357        H401   0.990       .  S
O358        H391   0.990       .  S
O359       Zr379   2.393       .  S
O360       Zr380   2.400       .  S
O360        H387   0.966   1_545  S
O361       Zr373   2.455       .  S
O361        C363   1.289       .  A
O362       Zr380   2.476       .  S
O362        C363   1.296       .  A
O364       Zr376   2.455       .  S
O364        C366   1.290       .  A
O365       Zr379   2.473   1_455  S
O365        C366   1.296       .  A
O367       Zr376   2.453       .  S
O367        C369   1.289       .  A
O368       Zr380   2.475   1_455  S
O368        C369   1.296       .  A
O370       Zr373   2.453       .  S
O370        C372   1.290       .  A
O371       Zr379   2.471       .  S
O371        C372   1.296       .  A
Zr373       O374   2.437       .  S
Zr373       O375   2.434       .  S
Zr373       O381   2.377       .  S
Zr373       O382   2.376       .  S
Zr373       O385   2.378       .  S
Zr373       O383   2.377       .  S
O374        H394   0.990       .  S
O374        H399   0.990       .  S
O375        H395   0.990       .  S
Zr376       O377   2.437       .  S
Zr376       O378   2.435       .  S
Zr376       O382   2.374   1_455  S
Zr376       O381   2.377   1_455  S
Zr376       O386   2.377       .  S
Zr376       O384   2.378       .  S
O377        H393   0.990       .  S
O378        H392   0.990       .  S
O378        H402   0.990       .  S
Zr379       O382   2.394       .  S
Zr379       O384   2.400   1_655  S
Zr379       O385   2.399       .  S
Zr380       O381   2.398       .  S
Zr380       O383   2.395       .  S
Zr380       O386   2.397   1_655  S
O381        H389   0.966       .  S
O384        H388   0.966       .  S
O385        H390   0.966       .  S
C403        C404   1.385       .  A
C403        C408   1.415       .  A
C403        C744   1.439       .  S
C404        C405   1.384   1_655  A
C404        H423   1.089       .  S
C405        C406   1.416       .  A
C405        C731   1.442       .  S
C406        C407   1.425   1_455  A
C406        C413   1.405       .  A
C407        C408   1.424       .  A
C407        C412   1.420       .  A
C408        C409   1.406       .  A
C409        C410   1.400       .  A
C409        H419   1.083       .  S
C410        C411   1.406       .  A
C410        H420   1.083       .  S
C411        C412   1.425       .  A
C411        C418   1.417       .  A
C412        C415   1.423   1_655  A
C413        C414   1.399       .  A
C413        H421   1.083       .  S
C414        C415   1.406       .  A
C414        H422   1.083       .  S
C415        C416   1.414       .  A
C416        C417   1.386   1_455  A
C416        C667   1.440       .  S
C417        C418   1.386       .  A
C417        H424   1.089       .  S
C418        C679   1.443       .  S
C425        C426   1.387       .  A
C425        C430   1.418       .  A
C425        C700   1.444       .  S
C426        C427   1.386       .  A
C426        H445   1.089       .  S
C427        C428   1.417       .  A
C427        C704   1.443   1_545  S
C428        C429   1.425       .  A
C428        C435   1.406   1_545  A
C429        C430   1.425       .  A
C429        C434   1.422       .  A
C430        C431   1.406       .  A
C431        C432   1.401       .  A
C431        H441   1.083       .  S
C432        C433   1.406       .  A
C432        H442   1.083       .  S
C433        C434   1.425       .  A
C433        C440   1.418       .  A
C434        C437   1.424       .  A
C435        C436   1.400       .  A
C435        H443   1.083       .  S
C436        C437   1.406   1_565  A
C436        H444   1.083       .  S
C437        C438   1.416       .  A
C438        C439   1.386       .  A
C438        C671   1.442   1_545  S
C439        C440   1.387       .  A
C439        H446   1.089       .  S
C440        C670   1.444       .  S
C447        C448   1.386   1_556  A
C447        C452   1.416       .  A
C447        C736   1.442       .  S
C448        C449   1.387       .  A
C448        H467   1.089       .  S
C449        C450   1.415       .  A
C449        C734   1.441       .  S
C450        C451   1.423       .  A
C450        C457   1.406       .  A
C451        C452   1.424   1_554  A
C451        C456   1.421       .  A
C452        C453   1.406       .  A
C453        C454   1.400       .  A
C453        H463   1.083       .  S
C454        C455   1.406       .  A
C454        H464   1.083       .  S
C455        C456   1.424   1_556  A
C455        C462   1.416       .  A
C456        C459   1.425       .  A
C457        C458   1.399       .  A
C457        H465   1.083       .  S
C458        C459   1.406       .  A
C458        H466   1.083       .  S
C459        C460   1.416       .  A
C460        C461   1.386       .  A
C460        C701   1.443       .  S
C461        C462   1.386   1_554  A
C461        H468   1.089       .  S
C462        C712   1.441       .  S
C469        C470   1.386       .  A
C469        C474   1.414       .  A
C469        C727   1.438   1_545  S
C470        C471   1.385       .  A
C470        H489   1.089       .  S
C471        C472   1.414       .  A
C471        C717   1.440       .  S
C472        C473   1.424       .  A
C472        C479   1.405       .  A
C473        C474   1.423       .  A
C473        C478   1.419       .  A
C474        C475   1.406   1_545  A
C475        C476   1.399       .  A
C475        H485   1.083       .  S
C476        C477   1.406   1_565  A
C476        H486   1.083       .  S
C477        C478   1.424       .  A
C477        C484   1.416       .  A
C478        C481   1.423       .  A
C479        C480   1.398       .  A
C479        H487   1.083       .  S
C480        C481   1.406       .  A
C480        H488   1.083       .  S
C481        C482   1.414       .  A
C482        C483   1.386       .  A
C482        C682   1.439       .  S
C483        C484   1.386       .  A
C483        H490   1.089       .  S
C484        C676   1.441   1_545  S
C491        C492   1.387       .  A
C491        C496   1.416       .  A
C491        C752   1.441       .  S
C492        C493   1.386   1_655  A
C492        H511   1.089       .  S
C493        C494   1.415       .  A
C493        C748   1.442       .  S
C494        C495   1.425   1_455  A
C494        C501   1.405       .  A
C495        C496   1.424       .  A
C495        C500   1.420       .  A
C496        C497   1.406       .  A
C497        C498   1.400       .  A
C497        H507   1.083       .  S
C498        C499   1.406       .  A
C498        H508   1.083       .  S
C499        C500   1.425       .  A
C499        C506   1.416       .  A
C500        C503   1.424   1_655  A
C501        C502   1.398       .  A
C501        H509   1.083       .  S
C502        C503   1.406       .  A
C502        H510   1.083       .  S
C503        C504   1.414       .  A
C504        C505   1.386   1_455  A
C504        C674   1.440       .  S
C505        C506   1.387       .  A
C505        H512   1.089       .  S
C506        C678   1.442       .  S
C513        C514   1.385       .  A
C513        C518   1.416       .  A
C513        C708   1.440   1_545  S
C514        C515   1.385       .  A
C514        H533   1.089       .  S
C515        C516   1.415       .  A
C515        C714   1.441       .  S
C516        C517   1.424       .  A
C516        C523   1.406       .  A
C517        C518   1.425       .  A
C517        C522   1.420       .  A
C518        C519   1.406   1_545  A
C519        C520   1.399       .  A
C519        H529   1.083       .  S
C520        C521   1.407   1_565  A
C520        H530   1.083       .  S
C521        C522   1.423       .  A
C521        C528   1.415       .  A
C522        C525   1.425       .  A
C523        C524   1.399       .  A
C523        H531   1.083       .  S
C524        C525   1.406       .  A
C524        H532   1.083       .  S
C525        C526   1.416       .  A
C526        C527   1.387       .  A
C526        C686   1.443       .  S
C527        C528   1.387       .  A
C527        H534   1.088       .  S
C528        C696   1.440   1_545  S
C535        C536   1.386       .  A
C535        C540   1.417       .  A
C535        C742   1.443       .  S
C536        C537   1.386   1_655  A
C536        H555   1.089       .  S
C537        C538   1.416       .  A
C537        C738   1.442       .  S
C538        C539   1.424   1_455  A
C538        C545   1.406       .  A
C539        C540   1.425       .  A
C539        C544   1.421       .  A
C540        C541   1.406       .  A
C541        C542   1.400       .  A
C541        H551   1.083       .  S
C542        C543   1.407       .  A
C542        H552   1.083       .  S
C543        C544   1.424       .  A
C543        C550   1.416       .  A
C544        C547   1.425   1_655  A
C545        C546   1.400       .  A
C545        H553   1.083       .  S
C546        C547   1.406       .  A
C546        H554   1.083       .  S
C547        C548   1.417       .  A
C548        C549   1.386   1_455  A
C548        C683   1.444       .  S
C549        C550   1.387       .  A
C549        H556   1.089       .  S
C550        C688   1.441       .  S
C557        C558   1.386   1_556  A
C557        C562   1.416       .  A
C557        C759   1.442       .  S
C558        C559   1.386       .  A
C558        H577   1.089       .  S
C559        C560   1.417       .  A
C559        C750   1.443       .  S
C560        C561   1.425       .  A
C560        C567   1.406       .  A
C561        C562   1.425   1_554  A
C561        C566   1.422       .  A
C562        C563   1.406       .  A
C563        C564   1.400       .  A
C563        H573   1.083       .  S
C564        C565   1.406       .  A
C564        H574   1.083       .  S
C565        C566   1.425   1_556  A
C565        C572   1.417       .  A
C566        C569   1.425       .  A
C567        C568   1.400       .  A
C567        H575   1.083       .  S
C568        C569   1.406       .  A
C568        H576   1.083       .  S
C569        C570   1.416       .  A
C570        C571   1.385       .  A
C570        C705   1.442       .  S
C571        C572   1.385   1_554  A
C571        H578   1.089       .  S
C572        C710   1.441       .  S
C579        C580   1.385       .  A
C579        C584   1.414       .  A
C579        C740   1.442   1_554  S
C580        C581   1.387       .  A
C580        H599   1.089       .  S
C581        C582   1.416       .  A
C581        C745   1.440       .  S
C582        C583   1.424       .  A
C582        C589   1.407       .  A
C583        C584   1.425       .  A
C583        C588   1.420       .  A
C584        C585   1.405   1_554  A
C585        C586   1.397       .  A
C585        H595   1.083       .  S
C586        C587   1.406   1_556  A
C586        H596   1.083       .  S
C587        C588   1.423       .  A
C587        C594   1.413       .  A
C588        C591   1.424       .  A
C589        C590   1.401       .  A
C589        H597   1.083       .  S
C590        C591   1.407       .  A
C590        H598   1.083       .  S
C591        C592   1.417       .  A
C592        C593   1.388       .  A
C592        C715   1.442       .  S
C593        C594   1.387       .  A
C593        H600   1.088       .  S
C594        C720   1.440   1_554  S
C601        C602   1.386       .  A
C601        C606   1.417       .  A
C601        C756   1.443       .  S
C602        C603   1.386   1_655  A
C602        H621   1.089       .  S
C603        C604   1.416       .  A
C603        C761   1.442       .  S
C604        C605   1.424   1_455  A
C604        C611   1.406       .  A
C605        C606   1.425       .  A
C605        C610   1.422       .  A
C606        C607   1.406       .  A
C607        C608   1.401       .  A
C607        H617   1.083       .  S
C608        C609   1.406       .  A
C608        H618   1.083       .  S
C609        C610   1.424       .  A
C609        C616   1.417       .  A
C610        C613   1.425   1_655  A
C611        C612   1.400       .  A
C611        H619   1.083       .  S
C612        C613   1.406       .  A
C612        H620   1.083       .  S
C613        C614   1.417       .  A
C614        C615   1.385   1_455  A
C614        C698   1.443       .  S
C615        C616   1.386       .  A
C615        H622   1.089       .  S
C616        C692   1.442       .  S
C623        C624   1.386       .  A
C623        C628   1.415       .  A
C623        C721   1.442       .  S
C624        C625   1.387       .  A
C624        H643   1.089       .  S
C625        C626   1.414       .  A
C625        C726   1.438   1_545  S
C626        C627   1.423       .  A
C626        C633   1.407   1_545  A
C627        C628   1.424       .  A
C627        C632   1.420       .  A
C628        C629   1.405       .  A
C629        C630   1.399       .  A
C629        H639   1.083       .  S
C630        C631   1.406       .  A
C630        H640   1.083       .  S
C631        C632   1.424       .  A
C631        C638   1.414       .  A
C632        C635   1.425       .  A
C633        C634   1.399       .  A
C633        H641   1.083       .  S
C634        C635   1.406   1_565  A
C634        H642   1.083       .  S
C635        C636   1.416       .  A
C636        C637   1.385       .  A
C636        C694   1.441   1_545  S
C637        C638   1.385       .  A
C637        H644   1.089       .  S
C638        C690   1.439       .  S
C645        C646   1.386   1_556  A
C645        C650   1.416       .  A
C645        C758   1.442       .  S
C646        C647   1.386       .  A
C646        H665   1.089       .  S
C647        C648   1.416       .  A
C647        C753   1.442       .  S
C648        C649   1.424       .  A
C648        C655   1.406       .  A
C649        C650   1.424   1_554  A
C649        C654   1.420       .  A
C650        C651   1.406       .  A
C651        C652   1.400       .  A
C651        H661   1.083       .  S
C652        C653   1.406       .  A
C652        H662   1.083       .  S
C653        C654   1.424   1_556  A
C653        C660   1.416       .  A
C654        C657   1.424       .  A
C655        C656   1.399       .  A
C655        H663   1.083       .  S
C656        C657   1.406       .  A
C656        H664   1.083       .  S
C657        C658   1.415       .  A
C658        C659   1.385       .  A
C658        C729   1.439       .  S
C659        C660   1.385   1_554  A
C659        H666   1.089       .  S
C660        C724   1.440       .  S
C667        C668   1.205       .  T
C669        C670   1.209       .  T
C671        C672   1.207       .  T
C673        C674   1.205       .  T
C675        C676   1.207       .  T
C677        C678   1.207       .  T
C679        C680   1.208       .  T
C681        C682   1.205       .  T
C683        C684   1.208       .  T
C685        C686   1.208       .  T
C687        C688   1.206       .  T
C689        C690   1.206       .  T
C691        C692   1.208       .  T
C693        C694   1.207       .  T
C695        C696   1.206       .  T
C697        C698   1.208       .  T
C699        C700   1.209       .  T
C701        C702   1.208       .  T
C703        C704   1.208       .  T
C705        C706   1.208       .  T
C707        C708   1.206       .  T
C709        C710   1.207       .  T
C711        C712   1.206       .  T
C713        C714   1.207       .  T
C715        C716   1.207       .  T
C717        C718   1.205       .  T
C719        C720   1.205       .  T
C721        C722   1.207       .  T
C723        C724   1.206       .  T
C725        C726   1.204       .  T
C727        C728   1.204       .  T
C729        C730   1.206       .  T
C731        C732   1.207       .  T
C733        C734   1.206       .  T
C735        C736   1.207       .  T
C737        C738   1.207       .  T
C739        C740   1.206       .  T
C741        C742   1.208       .  T
C743        C744   1.206       .  T
C745        C746   1.206       .  T
C747        C748   1.207       .  T
C749        C750   1.208       .  T
C751        C752   1.207       .  T
C753        C754   1.207       .  T
C755        C756   1.208       .  T
C757        C758   1.207       .  T
C759        C760   1.207       .  T
C761        C762   1.207       .  T
