geometry optimzed in LAMMPS
_audit_creation_date              2020-12-01 
_audit_creation_method            'lammps2cif' 
_symmetry_space_group_name_H-M    'P1' 
_symmetry_Int_Tables_number       1 
_symmetry_cell_setting            triclinic 
loop_ 
_symmetry_equiv_pos_as_xyz 
  x,y,z 
_cell_length_a                    28.47608188 
_cell_length_b                    28.55234389126066 
_cell_length_c                    42.02742209125196 
_cell_angle_alpha                 90.61902405848666 
_cell_angle_beta                  89.71231977198782 
_cell_angle_gamma                 90.65122739537146 
loop_ 
_atom_site_label 
_atom_site_type_symbol 
_atom_site_fract_x 
_atom_site_fract_y 
_atom_site_fract_z 
_atom_site_charge 
O1          O  0.38148888  0.22910608  0.13055658    -0.72200
O2          O  0.44887667  0.11307551  0.13068720    -0.72500
O3          O  0.40266667  0.16264851  0.08715967    -0.72300
O4          O  0.42985723  0.18016934  0.17427366    -0.72300
O5          O  0.36952017  0.13742417  0.18708539    -0.72300
O6          O  0.33592444  0.12953662  0.09894902    -0.72300
O7          O  0.38283004  0.07655883  0.13966797    -0.72300
O8          O  0.31972286  0.19096668  0.14694918    -0.72400
V9          V  0.41457476  0.17066399  0.13098829     1.35200
V10         V  0.35311405  0.13459375  0.14299148     1.35200
C11         C  0.33827860  0.22901505  0.13815506     0.77000
C12         C  0.42638050  0.07494972  0.13486672     0.77000
C13         C  0.36460760  0.14414703  0.07796328     0.76900
C14         C  0.40651712  0.15932596  0.19551196     0.76900
O15         O  0.49936172  0.72302062  0.12434150    -0.72200
O16         O  0.45420014  0.84943730  0.13008430    -0.72500
O17         O  0.48928555  0.79548804  0.08417071    -0.72300
O18         O  0.46164069  0.77707523  0.17010485    -0.72300
O19         O  0.52397411  0.81658395  0.18276010    -0.72300
O20         O  0.56300442  0.80344748  0.09496318    -0.72300
O21         O  0.52697624  0.87301426  0.13189646    -0.72300
O22         O  0.56365501  0.74860666  0.14631812    -0.72400
V23         V  0.47709350  0.78656815  0.12728437     1.35200
V24         V  0.54364364  0.81016013  0.13889267     1.35200
C25         C  0.53942249  0.71445967  0.13605955     0.77000
C26         C  0.48403460  0.88287630  0.13066222     0.77000
C27         C  0.53088878  0.79709472  0.07432848     0.76900
C28         C  0.48503902  0.79758749  0.19128253     0.76900
O29         O  0.38173460  0.20995845  0.88681346    -0.72200
O30         O  0.45079298  0.09503293  0.88689331    -0.72500
O31         O  0.42950454  0.15893870  0.84290691    -0.72300
O32         O  0.40535364  0.14712434  0.93073388    -0.72300
O33         O  0.33844756  0.11282159  0.92111377    -0.72300
O34         O  0.36952775  0.11455997  0.83179057    -0.72300
O35         O  0.38503180  0.05695416  0.87997860    -0.72300
O36         O  0.31978473  0.17007090  0.87258947    -0.72400
V37         V  0.41565080  0.15206007  0.88657169     1.35200
V38         V  0.35429759  0.11446981  0.87650057     1.35200
C39         C  0.33822940  0.20885798  0.88034558     0.77000
C40         C  0.42883948  0.05636431  0.88348512     0.77000
C41         C  0.40625068  0.13619038  0.82237967     0.76900
C42         C  0.36727075  0.13023944  0.94112738     0.76900
O43         O  0.50687313  0.70666673  0.88673591    -0.72200
O44         O  0.46152447  0.83239408  0.88216438    -0.72500
O45         O  0.47003843  0.76003140  0.84123704    -0.72300
O46         O  0.49589681  0.77894562  0.92746290    -0.72300
O47         O  0.56978827  0.78851349  0.91701993    -0.72300
O48         O  0.53313348  0.79894956  0.82923228    -0.72300
O49         O  0.53419294  0.85641672  0.88015142    -0.72300
O50         O  0.57213040  0.73155571  0.86552321    -0.72400
V51         V  0.48464525  0.76978058  0.88422340     1.35200
V52         V  0.55152991  0.79346691  0.87303767     1.35200
C53         C  0.54745794  0.69787078  0.87570744     0.77000
C54         C  0.49115592  0.86594676  0.88184545     0.77000
C55         C  0.49425685  0.78058602  0.82047348     0.76900
C56         C  0.53724250  0.78278339  0.93750487     0.76900
O57         O  0.40193086  0.70185786  0.62731486    -0.72200
O58         O  0.44986651  0.82826890  0.62902751    -0.72500
O59         O  0.44168483  0.75864575  0.67140159    -0.72300
O60         O  0.41322701  0.77168872  0.58516319    -0.72300
O61         O  0.34027782  0.78487763  0.59650812    -0.72300
O62         O  0.37814527  0.79544493  0.68409732    -0.72300
O63         O  0.37787876  0.85209093  0.63384948    -0.72300
O64         O  0.33677234  0.72802069  0.64746208    -0.72400
V65         V  0.42552935  0.76536843  0.62847738     1.35200
V66         V  0.35925071  0.78956810  0.64039520     1.35200
C67         C  0.36069784  0.69379922  0.63778887     0.77000
C68         C  0.42080139  0.86163166  0.63044174     0.77000
C69         C  0.41737229  0.77866087  0.69243518     0.76900
C70         C  0.37200964  0.77775347  0.57564988     0.76900
O71         O  0.50533996  0.21407689  0.62840162    -0.72200
O72         O  0.44346813  0.09330700  0.62570867    -0.72500
O73         O  0.45705880  0.15941804  0.67106198    -0.72300
O74         O  0.48874405  0.14869153  0.58387821    -0.72300
O75         O  0.55614810  0.11898738  0.59583877    -0.72300
O76         O  0.51930886  0.12123334  0.68363627    -0.72300
O77         O  0.51083906  0.06134580  0.63521877    -0.72300
O78         O  0.56841761  0.17957973  0.64430558    -0.72400
V79         V  0.47475353  0.15336008  0.62766178     1.35200
V80         V  0.53743683  0.12119705  0.63965148     1.35200
C81         C  0.54879075  0.21638327  0.63516063     0.77000
C82         C  0.46777728  0.05678732  0.62963727     0.77000
C83         C  0.48061629  0.13925049  0.69217185     0.76900
C84         C  0.52822044  0.13387569  0.57491734     0.76900
O85         O  0.39919038  0.70995645  0.38438323    -0.72200
O86         O  0.44341296  0.83826869  0.38361213    -0.72500
O87         O  0.41110867  0.77963087  0.42741185    -0.72300
O88         O  0.43545080  0.76884074  0.34012129    -0.72300
O89         O  0.36954015  0.80267473  0.32988310    -0.72300
O90         O  0.33732675  0.79113550  0.41875258    -0.72300
O91         O  0.37065192  0.85991910  0.38073835    -0.72300
O92         O  0.33202633  0.73428715  0.36725455    -0.72400
V93         V  0.42106727  0.77437976  0.38363750     1.35200
V94         V  0.35343782  0.79653734  0.37423426     1.35200
C95         C  0.35733230  0.70067670  0.37559017     0.77000
C96         C  0.41343777  0.87092783  0.38299820     0.77000
C97         C  0.37034001  0.78393591  0.43838797     0.76900
C98         C  0.40933076  0.78798120  0.32023131     0.76900
O99         O  0.50761468  0.22266916  0.39159874    -0.72200
O100        O  0.44140050  0.10398645  0.39048106    -0.72500
O101        O  0.49130968  0.15429886  0.43324584    -0.72300
O102        O  0.45557249  0.17386449  0.34824605    -0.72300
O103        O  0.51407387  0.13218689  0.33181803    -0.72300
O104        O  0.55803103  0.12582707  0.41757901    -0.72300
O105        O  0.50731903  0.07007829  0.37877286    -0.72300
O106        O  0.56714325  0.18760224  0.37005471    -0.72400
V107        V  0.47493721  0.16306687  0.39047356     1.35200
V108        V  0.53547359  0.12967789  0.37476438     1.35200
C109        C  0.54990140  0.22446125  0.38183318     0.77000
C110        C  0.46426892  0.06664000  0.38528025     0.77000
C111        C  0.53141266  0.13925783  0.44008204     0.76900
C112        C  0.47714158  0.15462817  0.32543523     0.76900
O113        O  0.19015876  0.40935254  0.12676581    -0.72200
O114        O  0.06878578  0.46773310  0.12526899    -0.72500
O115        O  0.13659469  0.45957825  0.16869066    -0.72300
O116        O  0.12298678  0.42010690  0.08296591    -0.72300
O117        O  0.09527150  0.35278897  0.09800915    -0.72300
O118        O  0.09862234  0.39753055  0.18447975    -0.72300
O119        O  0.03727442  0.40046391  0.13624484    -0.72300
O120        O  0.15632734  0.34747925  0.14637851    -0.72400
V121        V  0.12907694  0.43809321  0.12622270     1.35200
V122        V  0.09756543  0.37586529  0.14107725     1.35200
C123        C  0.19309045  0.36730866  0.13616824     0.77000
C124        C  0.03209501  0.44326638  0.13064620     0.77000
C125        C  0.11838275  0.43650170  0.19107611     0.76900
C126        C  0.10899785  0.37928753  0.07568204     0.76900
O127        O  0.68022361  0.53036215  0.13261559    -0.72200
O128        O  0.80538885  0.48282432  0.12757955    -0.72500
O129        O  0.74075570  0.49186309  0.17385249    -0.72300
O130        O  0.74452894  0.51852655  0.08620557    -0.72300
O131        O  0.77398701  0.58774596  0.09535392    -0.72300
O132        O  0.76877888  0.56088209  0.18534946    -0.72300
O133        O  0.83288727  0.55246474  0.13826474    -0.72300
O134        O  0.70982400  0.59932848  0.14291566    -0.72400
V135        V  0.74320383  0.50735178  0.13028266     1.35200
V136        V  0.77056082  0.57391808  0.14031178     1.35200
C137        C  0.67418485  0.57349185  0.13865857     0.77000
C138        C  0.84040178  0.51002806  0.13195767     0.77000
C139        C  0.75454983  0.52083155  0.19470772     0.76900
C140        C  0.76172269  0.55604146  0.07544825     0.76900
O141        O  0.18924894  0.38950651  0.88750463    -0.72200
O142        O  0.06702882  0.44659588  0.88658710    -0.72500
O143        O  0.12142433  0.40562811  0.93054802    -0.72300
O144        O  0.13591770  0.43414223  0.84373572    -0.72300
O145        O  0.09778315  0.37071132  0.83026931    -0.72300
O146        O  0.09560966  0.33582471  0.91881835    -0.72300
O147        O  0.03668636  0.37757087  0.87911407    -0.72300
O148        O  0.15634881  0.32533273  0.87003604    -0.72400
V149        V  0.12787934  0.41779801  0.88679577     1.35200
V150        V  0.09728638  0.35359763  0.87465314     1.35200
C151        C  0.19271179  0.34649761  0.87966162     0.77000
C152        C  0.03069129  0.42075265  0.88298016     0.77000
C153        C  0.10850822  0.36567396  0.93978959     0.76900
C154        C  0.11740298  0.40914026  0.82227469     0.76900
O155        O  0.67854479  0.50670946  0.88304906    -0.72200
O156        O  0.80255948  0.45773444  0.89041022    -0.72500
O157        O  0.74239386  0.50141270  0.92987884    -0.72300
O158        O  0.73901286  0.46101279  0.84376721    -0.72300
O159        O  0.76740411  0.52804024  0.82887394    -0.72300
O160        O  0.77334157  0.56812087  0.91637184    -0.72300
O161        O  0.83124405  0.52487593  0.87547299    -0.72300
O162        O  0.70941880  0.57343800  0.86911381    -0.72400
V163        V  0.74102032  0.48306657  0.88648625     1.35200
V164        V  0.76952086  0.54737802  0.87269339     1.35200
C165        C  0.67340312  0.54902440  0.87508439     0.77000
C166        C  0.83794300  0.48340709  0.88404423     0.77000
C167        C  0.76021041  0.54035383  0.93816581     0.76900
C168        C  0.75378296  0.48679404  0.82157235     0.76900
O169        O  0.70013916  0.39873124  0.62540147    -0.72200
O170        O  0.82516634  0.45161989  0.63020589    -0.72500
O171        O  0.77063263  0.41458381  0.58386802    -0.72300
O172        O  0.75398235  0.43921054  0.67165598    -0.72300
O173        O  0.78631888  0.37306092  0.68332414    -0.72300
O174        O  0.79449716  0.34424986  0.59346061    -0.72300
O175        O  0.85198917  0.38180504  0.63741935    -0.72300
O176        O  0.72943093  0.33233976  0.63963051    -0.72400
V177        V  0.76299117  0.42479367  0.62805242     1.35200
V178        V  0.78990409  0.35915919  0.63833675     1.35200
C179        C  0.69430727  0.35539765  0.63110837     0.77000
C180        C  0.86001561  0.42485089  0.63428132     0.77000
C181        C  0.78361413  0.37527900  0.57335531     0.76900
C182        C  0.76876987  0.41173787  0.69249631     0.76900
O183        O  0.21509252  0.50776947  0.63265092    -0.72200
O184        O  0.08891586  0.45840722  0.63404160    -0.72500
O185        O  0.14552695  0.49445456  0.58997351    -0.72300
O186        O  0.15722572  0.46832449  0.67691533    -0.72300
O187        O  0.12377991  0.53377565  0.68926288    -0.72300
O188        O  0.12840926  0.56652505  0.60018389    -0.72300
O189        O  0.06347280  0.52936819  0.64016713    -0.72300
O190        O  0.18799378  0.57423470  0.64980255    -0.72400
V191        V  0.15145450  0.48359596  0.63368001     1.35200
V192        V  0.12640955  0.54985861  0.64475713     1.35200
C193        C  0.22262797  0.55010260  0.64107686     0.77000
C194        C  0.05468851  0.48632229  0.63640815     0.77000
C195        C  0.13748491  0.53474600  0.57963945     0.76900
C196        C  0.13948695  0.49437988  0.69803067     0.76900
O197        O  0.69684437  0.41184394  0.38985819    -0.72200
O198        O  0.81943807  0.47159299  0.38543660    -0.72500
O199        O  0.74621247  0.46295688  0.34532938    -0.72300
O200        O  0.76879905  0.42530961  0.42981234    -0.72300
O201        O  0.79309540  0.35747333  0.41338254    -0.72300
O202        O  0.78293797  0.40203623  0.32706870    -0.78700
O203        O  0.84819331  0.40391295  0.37286397    -0.72300
O204        O  0.72781829  0.35092773  0.36721119    -0.72400
V205        V  0.75824704  0.44188577  0.38714214     1.35200
V206        V  0.78722317  0.37980943  0.37030022     1.35200
C207        C  0.69279814  0.36937087  0.38048820     0.77000
C208        C  0.85503989  0.44646119  0.37898881     0.77000
C209        C  0.76321844  0.44104839  0.32184933     0.76900
C210        C  0.78242347  0.38476149  0.43639925     0.76900
O211        O  0.21239801  0.51413734  0.38431188    -0.72200
O212        O  0.08390713  0.47135600  0.38319644    -0.72500
O213        O  0.15172579  0.48104616  0.33986362    -0.72300
O214        O  0.14331689  0.50120792  0.42792032    -0.72300
O215        O  0.12886945  0.57454594  0.42165876    -0.72300
O216        O  0.12258296  0.54925802  0.33106270    -0.72300
O217        O  0.06195789  0.54382024  0.38051192    -0.72300
O218        O  0.18801208  0.58322216  0.37158181    -0.72400
V219        V  0.14759152  0.49333566  0.38370669     1.35200
V220        V  0.12571443  0.56152167  0.37632531     1.35200
C221        C  0.22168267  0.55651658  0.37739059     0.77000
C222        C  0.05114733  0.50103444  0.38213721     0.77000
C223        C  0.13667876  0.50997717  0.32015273     0.76900
C224        C  0.13714889  0.54081485  0.44039953     0.76900
C225        C  0.92137579  0.49371287  0.40302760    -0.02300
C226        C  0.90427611  0.46415955  0.37847069     0.07400
C227        C  0.93625032  0.44623795  0.35532438    -0.02400
C228        C  0.98416790  0.45844836  0.35663620    -0.02400
C229        C  0.00117222  0.48682484  0.38164725     0.07500
C230        C  0.96971861  0.50457753  0.40471818    -0.02600
Br231      Br  0.99339595  0.54150917  0.43989866    -0.01200
Br232      Br  0.87975812  0.51636773  0.43602996    -0.01200
Br233      Br  0.02626536  0.43803053  0.32311525    -0.01200
Br234      Br  0.91577162  0.40457419  0.32123563    -0.01200
C235        C  0.11521890  0.57682057  0.52809794    -0.02300
C236        C  0.14098551  0.54217715  0.54423490     0.07400
C237        C  0.17037671  0.51217684  0.52592132    -0.02400
C238        C  0.16977833  0.51301388  0.49248035    -0.02400
C239        C  0.14101496  0.54519486  0.47605352     0.07500
C240        C  0.11531377  0.57834362  0.49427007    -0.02600
Br241      Br  0.07823866  0.62500531  0.47342980    -0.01200
Br242      Br  0.07895808  0.62211497  0.55178927    -0.01200
Br243      Br  0.21041647  0.46902977  0.47007876    -0.01200
Br244      Br  0.21519912  0.47066399  0.54588019    -0.01200
C245        C  0.74073574  0.37612356  0.52168988    -0.02300
C246        C  0.78265766  0.36685917  0.53822071     0.07400
C247        C  0.82371522  0.35644564  0.52054838    -0.02400
C248        C  0.82352052  0.35879126  0.48676862    -0.02400
C249        C  0.78206488  0.37070882  0.47052998     0.07500
C250        C  0.74030253  0.37717931  0.48824349    -0.02600
Br251      Br  0.68183136  0.38897707  0.46673323    -0.01200
Br252      Br  0.68345763  0.38984980  0.54477197    -0.01200
Br253      Br  0.88080577  0.35010035  0.46296736    -0.01200
Br254      Br  0.88116813  0.34364386  0.54267625    -0.01200
C255        C  0.94131227  0.42272032  0.65754717    -0.02300
C256        C  0.90944339  0.44207880  0.63546743     0.07400
C257        C  0.92617043  0.47500271  0.61319780    -0.02400
C258        C  0.97374793  0.48913665  0.61340946    -0.02400
C259        C  0.00531399  0.46975644  0.63534086     0.07500
C260        C  0.98888971  0.43673072  0.65748467    -0.02600
Br261      Br  0.03110240  0.41255246  0.68908136    -0.01200
Br262      Br  0.92063833  0.37759143  0.68886602    -0.01200
Br263      Br  0.99600586  0.53380752  0.58255978    -0.01200
Br264      Br  0.88525938  0.49793618  0.58044838    -0.01200
C265        C  0.80066937  0.45916604  0.73809192    -0.02300
C266        C  0.76689762  0.42687930  0.72644787     0.07400
C267        C  0.72792817  0.41532887  0.74568153    -0.02400
C268        C  0.72244738  0.43625021  0.77614475    -0.02400
C269        C  0.75708230  0.46777374  0.78827570     0.07500
C270        C  0.79670759  0.47834252  0.76905995    -0.02600
Br271      Br  0.84755823  0.51706616  0.78522460    -0.01200
Br272      Br  0.85204119  0.47860446  0.71110856    -0.01200
Br273      Br  0.66554556  0.42371693  0.79995782    -0.01200
Br274      Br  0.68125452  0.37182176  0.72965125    -0.01200
C275        C  0.08688862  0.45988140  0.77873917    -0.02300
C276        C  0.11938588  0.42638619  0.78904772     0.07400
C277        C  0.15942511  0.41761696  0.77041354    -0.02400
C278        C  0.16813119  0.44316405  0.74241000    -0.02400
C279        C  0.13498218  0.47596080  0.73126085     0.07500
C280        C  0.09429042  0.48436137  0.74998623    -0.02600
Br281      Br  0.04750690  0.52835688  0.73655563    -0.01200
Br282      Br  0.03142223  0.47152609  0.80393499    -0.01200
Br283      Br  0.22781046  0.43498454  0.72105637    -0.01200
Br284      Br  0.20199003  0.36944770  0.78321616    -0.01200
C285        C  0.94719201  0.41536157  0.86371657    -0.02300
C286        C  0.98172280  0.43871636  0.88272049     0.07400
C287        C  0.96792511  0.47651579  0.90255766    -0.02400
C288        C  0.92045732  0.49005730  0.90376332    -0.02400
C289        C  0.88638462  0.46590540  0.88542807     0.07500
C290        C  0.89982754  0.42859702  0.86548420    -0.02600
Br291      Br  0.85350602  0.39726000  0.83897200    -0.01200
Br292      Br  0.96379313  0.36694630  0.83309972    -0.01200
Br293      Br  0.90162024  0.54100133  0.93149088    -0.01200
Br294      Br  0.01293957  0.50934748  0.92906814    -0.01200
C295        C  0.71925838  0.45870316  0.27153011    -0.02300
C296        C  0.76079753  0.46225108  0.28949080     0.07400
C297        C  0.79774178  0.49124201  0.27815938    -0.02400
C298        C  0.79528774  0.51218625  0.24782476    -0.02400
C299        C  0.75485637  0.50595186  0.22881705     0.07500
C300        C  0.71628524  0.48015714  0.24141219    -0.02600
Br301      Br  0.65815433  0.47556864  0.21805704    -0.01200
Br302      Br  0.66562401  0.42585792  0.28895190    -0.01200
Br303      Br  0.84857962  0.54750409  0.23200166    -0.01200
Br304      Br  0.85063954  0.50519474  0.30502205    -0.01200
C305        C  0.78997193  0.51991741  0.02476056    -0.02300
C306        C  0.76955426  0.55890455  0.04031864     0.07400
C307        C  0.75243023  0.59588264  0.02168147    -0.02400
C308        C  0.75228098  0.59190084  0.98791891    -0.02400
C309        C  0.76767975  0.55022735  0.97278176     0.07500
C310        C  0.78811664  0.51509342  0.99148333    -0.02600
Br311      Br  0.81409028  0.45940470  0.97179273    -0.01200
Br312      Br  0.82141320  0.47238731  0.04900598    -0.01200
Br313      Br  0.72860615  0.64234978  0.96270473    -0.01200
Br314      Br  0.72639406  0.65037531  0.04226511    -0.01200
C315        C  0.16501989  0.46019177  0.27393872    -0.02300
C316        C  0.13416725  0.49540441  0.28575211     0.07400
C317        C  0.09775423  0.51094671  0.26563902    -0.02400
C318        C  0.09233821  0.49141589  0.23474764    -0.02400
C319        C  0.12165810  0.45490735  0.22410223     0.07500
C320        C  0.15754409  0.43918006  0.24388240    -0.02600
Br321      Br  0.19646253  0.38811165  0.22952213    -0.01200
Br322      Br  0.21959904  0.44101058  0.29758513    -0.01200
Br323      Br  0.04360237  0.51354831  0.20712995    -0.01200
Br324      Br  0.05299381  0.55680783  0.28031403    -0.01200
C325        C  0.15264421  0.37330829  0.02413589    -0.02300
C326        C  0.11131895  0.36373092  0.04173202     0.07400
C327        C  0.07221554  0.34360862  0.02585703    -0.02400
C328        C  0.07218578  0.33974642  0.99217051    -0.02400
C329        C  0.11137220  0.35567432  0.97444787     0.07500
C330        C  0.15268535  0.36920699  0.99078406    -0.02600
Br331      Br  0.20993163  0.38255725  0.96743178    -0.01200
Br332      Br  0.20994863  0.39182831  0.04564927    -0.01200
Br333      Br  0.01759067  0.31558802  0.97037653    -0.01200
Br334      Br  0.01777846  0.32404432  0.04987752    -0.01200
C335        C  0.92326510  0.51471631  0.11114883    -0.02300
C336        C  0.88922270  0.49300331  0.13086258     0.07400
C337        C  0.90272195  0.45743540  0.15162290    -0.02400
C338        C  0.94978169  0.44319674  0.15261688    -0.02400
C339        C  0.98371346  0.46271698  0.13147081     0.07500
C340        C  0.97005697  0.49881276  0.11077440    -0.02600
Br341      Br  0.01410768  0.52524823  0.08061363    -0.01200
Br342      Br  0.90577325  0.56591147  0.08408509    -0.01200
Br343      Br  0.96708522  0.39900871  0.18508892    -0.01200
Br344      Br  0.85705186  0.43019120  0.18044196    -0.01200
C345        C  0.66092361  0.29332060  0.39994969    -0.02300
C346        C  0.65157693  0.33798210  0.38728820     0.07400
C347        C  0.60506491  0.34817044  0.37833931    -0.02400
C348        C  0.57017516  0.31201660  0.37781657    -0.02400
C349        C  0.58174356  0.26586714  0.38670313     0.07500
C350        C  0.62667767  0.25771558  0.39947335    -0.02600
Br351      Br  0.64260709  0.19729063  0.41682254    -0.01200
Br352      Br  0.72094110  0.27973120  0.41886798    -0.01200
Br353      Br  0.50783730  0.32504253  0.36311529    -0.01200
Br354      Br  0.58957392  0.41092039  0.36634355    -0.01200
C355        C  0.32341631  0.62922187  0.34818528    -0.02300
C356        C  0.33572967  0.65286097  0.37669026     0.07400
C357        C  0.31694761  0.63617264  0.40566537    -0.02400
C358        C  0.28609694  0.59730241  0.40612489    -0.02400
C359        C  0.26959479  0.57745155  0.37750195     0.07500
C360        C  0.28987413  0.59224115  0.34855636    -0.02600
Br361      Br  0.26801229  0.56455361  0.30925309    -0.01200
Br362      Br  0.34861314  0.65091396  0.30830717    -0.01200
Br363      Br  0.26129844  0.57549923  0.44607589    -0.01200
Br364      Br  0.32440337  0.67178791  0.44422685    -0.01200
C365        C  0.42502578  0.94746697  0.35573577    -0.02300
C366        C  0.42668524  0.92118351  0.38393585     0.07400
C367        C  0.43431277  0.94440789  0.41326682    -0.02400
C368        C  0.44207582  0.99337245  0.41417832    -0.02400
C369        C  0.44291435  0.01919203  0.38575181     0.07500
C370        C  0.43360510  0.99614277  0.35661515    -0.02600
Br371      Br  0.43311048  0.03148843  0.31774472    -0.01200
Br372      Br  0.41153821  0.91671877  0.31566422    -0.01200
Br373      Br  0.45159940  0.02529749  0.45427638    -0.01200
Br374      Br  0.43368445  0.90903937  0.45212123    -0.01200
C375        C  0.57263181  0.30190469  0.64458885    -0.02300
C376        C  0.57903931  0.25830658  0.62899469     0.07400
C377        C  0.61866578  0.25247831  0.60897260    -0.02400
C378        C  0.65323139  0.28750587  0.60691456    -0.02400
C379        C  0.64991964  0.32871769  0.62549552     0.07500
C380        C  0.60808895  0.33728009  0.64271021    -0.02600
Br381      Br  0.60044171  0.39621698  0.66459027    -0.01200
Br382      Br  0.51775335  0.31140939  0.67066565    -0.01200
Br383      Br  0.70684206  0.27728056  0.57924634    -0.01200
Br384      Br  0.62850248  0.19539500  0.58500554    -0.01200
C385        C  0.55650524  0.09741779  0.52331369    -0.02300
C386        C  0.54102347  0.13690138  0.54079848     0.07400
C387        C  0.53388471  0.17957403  0.52489835    -0.02400
C388        C  0.53708331  0.18123439  0.49165021    -0.02400
C389        C  0.54549827  0.14003427  0.47387601     0.07500
C390        C  0.55864330  0.09897432  0.48972012    -0.02600
Br391      Br  0.57699808  0.04443361  0.46553252    -0.01200
Br392      Br  0.57095343  0.04024077  0.54493689    -0.01200
Br393      Br  0.52954448  0.24031304  0.47023432    -0.01200
Br394      Br  0.51870369  0.23620926  0.54828648    -0.01200
C395        C  0.33157600  0.62006587  0.66397047    -0.02300
C396        C  0.33770027  0.64698764  0.63627081     0.07400
C397        C  0.31171306  0.63506796  0.60892049    -0.02400
C398        C  0.27855929  0.59835557  0.60955378    -0.02400
C399        C  0.26904293  0.57410112  0.63791430     0.07500
C400        C  0.29697222  0.58399276  0.66489657    -0.02600
Br401      Br  0.28531772  0.55054004  0.70366313    -0.01200
Br402      Br  0.36791269  0.63554747  0.70126272    -0.01200
Br403      Br  0.24217005  0.58594481  0.57208352    -0.01200
Br404      Br  0.31535224  0.67361974  0.57172784    -0.01200
C405        C  0.33312813  0.80536315  0.52493775    -0.02300
C406        C  0.36358421  0.77466426  0.54078588     0.07400
C407        C  0.39140577  0.74329804  0.52262755    -0.02400
C408        C  0.39259869  0.74598810  0.48940679    -0.02400
C409        C  0.36377376  0.77835232  0.47332493     0.07500
C410        C  0.33278537  0.80674802  0.49125285    -0.02600
Br411      Br  0.29291451  0.85072895  0.47012849    -0.01200
Br412      Br  0.29466919  0.84834075  0.54900201    -0.01200
Br413      Br  0.43533370  0.70426923  0.46679175    -0.01200
Br414      Br  0.42877908  0.69526563  0.54275857    -0.01200
C415        C  0.44122890  0.93566890  0.65837917    -0.02300
C416        C  0.43517727  0.91109483  0.62950446     0.07400
C417        C  0.43481611  0.93553426  0.60054496    -0.02400
C418        C  0.44153598  0.98454548  0.60050360    -0.02400
C419        C  0.44821012  0.00899943  0.62947048     0.07500
C420        C  0.44785040  0.98438057  0.65835953    -0.02600
Br421      Br  0.45767738  0.01727890  0.69815133    -0.01200
Br422      Br  0.44076049  0.90257338  0.69814782    -0.01200
Br423      Br  0.44357798  0.01789930  0.56087178    -0.01200
Br424      Br  0.42580518  0.90156490  0.56107728    -0.01200
C425        C  0.58046958  0.62914965  0.84625330    -0.02300
C426        C  0.56751612  0.65025560  0.87546699     0.07400
C427        C  0.58208252  0.62987950  0.90420101    -0.02400
C428        C  0.60965644  0.58932518  0.90367973    -0.02400
C429        C  0.62755325  0.57228354  0.87464764     0.07500
C430        C  0.61128985  0.59085077  0.84586048    -0.02600
Br431      Br  0.63454782  0.56588559  0.80605188    -0.01200
Br432      Br  0.55960533  0.65558723  0.80677330    -0.01200
Br433      Br  0.62796984  0.56038752  0.94296906    -0.01200
Br434      Br  0.57372862  0.66234215  0.94402123    -0.01200
C435        C  0.40654857  0.78231899  0.75210972    -0.02300
C436        C  0.43643484  0.78317567  0.72531452     0.07400
C437        C  0.48574017  0.78790363  0.72995913    -0.02400
C438        C  0.50497907  0.78653088  0.76077174    -0.02400
C439        C  0.47513220  0.78402840  0.78758582     0.07500
C440        C  0.42559342  0.78462395  0.78295915    -0.02600
Br441      Br  0.38227919  0.79207560  0.81838572    -0.01200
Br442      Br  0.33924286  0.77598061  0.74721536    -0.01200
Br443      Br  0.57252548  0.78642604  0.76546978    -0.01200
Br444      Br  0.52798220  0.79962225  0.69455623    -0.01200
C445        C  0.23172739  0.27813381  0.90380472    -0.02300
C446        C  0.23566535  0.31825355  0.88448964     0.07400
C447        C  0.27757079  0.32581572  0.86704747    -0.02400
C448        C  0.31246170  0.29072000  0.86591150    -0.02400
C449        C  0.30721899  0.24994777  0.88433463     0.07500
C450        C  0.26795422  0.24539711  0.90465307    -0.02600
Br451      Br  0.26267595  0.19344473  0.93364406    -0.01200
Br452      Br  0.17563777  0.26564780  0.92848812    -0.01200
Br453      Br  0.36457407  0.29592964  0.83673813    -0.01200
Br454      Br  0.28642919  0.38292065  0.84387751    -0.01200
C455        C  0.47353866  0.13138491  0.78321898    -0.02300
C456        C  0.42436795  0.13363118  0.78883866     0.07400
C457        C  0.39392989  0.13297613  0.76243152    -0.02400
C458        C  0.41239429  0.13228183  0.73109816    -0.02400
C459        C  0.46168138  0.13551322  0.72554125     0.07500
C460        C  0.49204431  0.13338525  0.75200665    -0.02600
Br461      Br  0.55949032  0.13321776  0.74633364    -0.01200
Br462      Br  0.51664274  0.12200605  0.81804774    -0.01200
Br463      Br  0.36927498  0.12170578  0.69621402    -0.01200
Br464      Br  0.32669083  0.13444014  0.76871064    -0.01200
C465        C  0.46140110  0.93613073  0.85413730    -0.02300
C466        C  0.47669023  0.91529838  0.88238555     0.07400
C467        C  0.48214025  0.94282558  0.91022976    -0.02400
C468        C  0.46979223  0.99053612  0.91020990    -0.02400
C469        C  0.45224236  0.01066643  0.88229990     0.07500
C470        C  0.44903065  0.98357600  0.85411395    -0.02600
Br471      Br  0.42765824  0.01150176  0.81519814    -0.01200
Br472      Br  0.45840673  0.90013264  0.81513618    -0.01200
Br473      Br  0.47463997  0.02773906  0.94862752    -0.01200
Br474      Br  0.50521027  0.91467012  0.94854062    -0.01200
C475        C  0.57956293  0.65371676  0.16754111    -0.02300
C476        C  0.55965198  0.66681847  0.13829565     0.07400
C477        C  0.56949560  0.63972149  0.11073156    -0.02400
C478        C  0.60280732  0.60348537  0.11184068    -0.02400
C479        C  0.62741187  0.59531497  0.14016302     0.07500
C480        C  0.61375717  0.61858605  0.16837760    -0.02600
Br481      Br  0.64480705  0.60482500  0.20781559    -0.01200
Br482      Br  0.56268237  0.68670856  0.20625490    -0.01200
Br483      Br  0.61904332  0.56876006  0.07373998    -0.01200
Br484      Br  0.54310735  0.65571290  0.07045966    -0.01200
C485        C  0.39811243  0.78728949  0.26071510    -0.02300
C486        C  0.42720365  0.79458811  0.28719062     0.07400
C487        C  0.47501005  0.80745672  0.28219994    -0.02400
C488        C  0.49450335  0.80775693  0.25125742    -0.02400
C489        C  0.46559724  0.79960246  0.22453422     0.07500
C490        C  0.41629164  0.79251332  0.22968717    -0.02600
Br491      Br  0.37138406  0.79375024  0.19520134    -0.01200
Br492      Br  0.33359238  0.76723381  0.26653578    -0.01200
Br493      Br  0.56140864  0.81828024  0.24660512    -0.01200
Br494      Br  0.51383654  0.82784429  0.31751228    -0.01200
C495        C  0.51088419  0.75297596  0.99004749    -0.02300
C496        C  0.54425265  0.77945558  0.97247432     0.07400
C497        C  0.57855471  0.80620082  0.98903259    -0.02400
C498        C  0.57614710  0.81058587  0.02263472    -0.02400
C499        C  0.53918943  0.78857528  0.03971723     0.07500
C500        C  0.50712466  0.75877692  0.02301933    -0.02600
Br501      Br  0.45521113  0.72594017  0.04389323    -0.01200
Br502      Br  0.46886285  0.70757858  0.96950885    -0.01200
Br503      Br  0.62107036  0.85033380  0.04444642    -0.01200
Br504      Br  0.62765137  0.83857751  0.96602250    -0.01200
C505        C  0.31340747  0.31291985  0.15005671    -0.02300
C506        C  0.30718661  0.26979670  0.13369494     0.07400
C507        C  0.26685940  0.26270414  0.11487551    -0.02400
C508        C  0.23113676  0.29590115  0.11478723    -0.02400
C509        C  0.23579853  0.33822299  0.13226209     0.07500
C510        C  0.27823297  0.34775335  0.14856149    -0.02600
Br511      Br  0.28722820  0.40714288  0.16990120    -0.01200
Br512      Br  0.36746721  0.32225186  0.17685224    -0.01200
Br513      Br  0.17476433  0.28127539  0.09112613    -0.01200
Br514      Br  0.25911127  0.20635297  0.08935709    -0.01200
C515        C  0.47296739  0.15735420  0.23484708    -0.02300
C516        C  0.42399059  0.15911195  0.22892813     0.07400
C517        C  0.39256976  0.16018341  0.25501964    -0.02400
C518        C  0.40968319  0.15819106  0.28645252    -0.02400
C519        C  0.45878431  0.15755575  0.29231430     0.07500
C520        C  0.49014928  0.15876302  0.26621054    -0.02600
Br521      Br  0.55710609  0.16568492  0.27287493    -0.01200
Br522      Br  0.51772273  0.14916073  0.20045335    -0.01200
Br523      Br  0.36454194  0.15435864  0.32095568    -0.01200
Br524      Br  0.32579666  0.16606939  0.24815612    -0.01200
C525        C  0.34525337  0.09461565  0.99431118    -0.02300
C526        C  0.35727420  0.13410604  0.97586675     0.07400
C527        C  0.36485673  0.17781792  0.99129739    -0.02400
C528        C  0.36333885  0.18139479  0.02465721    -0.02400
C529        C  0.35509600  0.14125809  0.04325455     0.07500
C530        C  0.34432707  0.09815211  0.02797530    -0.02600
Br531      Br  0.33248642  0.04307810  0.05308012    -0.01200
Br532      Br  0.33444623  0.03480743  0.97377652    -0.01200
Br533      Br  0.37300945  0.24195725  0.04490021    -0.01200
Br534      Br  0.37832189  0.23359471  0.96694956    -0.01200
C535        C  0.46937907  0.00999092  0.10718112    -0.02300
C536        C  0.44857776  0.02860687  0.13497121     0.07400
C537        C  0.44066372  0.99955452  0.16144392    -0.02400
C538        C  0.45048474  0.95153448  0.15945552    -0.02400
C539        C  0.47008858  0.93248056  0.13142655     0.07500
C540        C  0.48113203  0.96213059  0.10569958    -0.02600
Br541      Br  0.51101526  0.93680063  0.06808998    -0.01200
Br542      Br  0.47874270  0.04918052  0.07054080    -0.01200
Br543      Br  0.43796412  0.91227743  0.19560010    -0.01200
Br544      Br  0.41696219  0.02593310  0.20087007    -0.01200
loop_ 
_geom_bond_atom_site_label_1 
_geom_bond_atom_site_label_2 
_geom_bond_distance 
_geom_bond_site_symmetry_2 
_ccdc_geom_bond_type 
O1            V9   1.926       .  S
O1           C11   1.270       .  A
O2            V9   1.922       .  S
O2           C12   1.270       .  A
O3            V9   1.886       .  S
O3           C13   1.261       .  A
O4            V9   1.889       .  S
O4           C14   1.261       .  A
O5           V10   1.914       .  S
O5           C14   1.269       .  A
O6           V10   1.921       .  S
O6           C13   1.270       .  A
O7           V10   1.873       .  S
O7           C12   1.257       .  A
O8           V10   1.884       .  S
O8           C11   1.261       .  A
V9           V10   2.083       .  T
C11         C506   1.485       .  S
C12         C536   1.473       .  S
C13         C529   1.486       .  S
C14         C516   1.492       .  S
O15          V23   1.931       .  S
O15          C25   1.272       .  A
O16          V23   1.919       .  S
O16          C26   1.271       .  A
O17          V23   1.863       .  S
O17          C27   1.253       .  A
O18          V23   1.872       .  S
O18          C28   1.251       .  A
O19          V24   1.932       .  S
O19          C28   1.280       .  A
O20          V24   1.932       .  S
O20          C27   1.274       .  A
O21          V24   1.888       .  S
O21          C26   1.259       .  A
O22          V24   1.883       .  S
O22          C25   1.261       .  A
V23          V24   2.063       .  T
C25         C476   1.487       .  S
C26         C539   1.475       .  S
C27         C499   1.490       .  S
C28         C489   1.501       .  S
O29          V37   1.924       .  S
O29          C39   1.270       .  A
O30          V37   1.921       .  S
O30          C40   1.270       .  A
O31          V37   1.887       .  S
O31          C41   1.260       .  A
O32          V37   1.884       .  S
O32          C42   1.260       .  A
O33          V38   1.927       .  S
O33          C42   1.272       .  A
O34          V38   1.926       .  S
O34          C41   1.272       .  A
O35          V38   1.877       .  S
O35          C40   1.257       .  A
O36          V38   1.886       .  S
O36          C39   1.261       .  A
V37          V38   2.083       .  T
C39         C449   1.484       .  S
C40         C469   1.472       .  S
C41         C456   1.500       .  S
C42         C526   1.489       .  S
O43          V51   1.921       .  S
O43          C53   1.270       .  A
O44          V51   1.915       .  S
O44          C54   1.270       .  A
O45          V51   1.873       .  S
O45          C55   1.256       .  A
O46          V51   1.862       .  S
O46          C56   1.256       .  A
O47          V52   1.930       .  S
O47          C56   1.272       .  A
O48          V52   1.925       .  S
O48          C55   1.274       .  A
O49          V52   1.890       .  S
O49          C54   1.260       .  A
O50          V52   1.892       .  S
O50          C53   1.262       .  A
V51          V52   2.067       .  T
C53         C426   1.481       .  S
C54         C466   1.472       .  S
C55         C439   1.493       .  S
C56         C496   1.488       .  S
O57          V65   1.927       .  S
O57          C67   1.271       .  A
O58          V65   1.918       .  S
O58          C68   1.270       .  A
O59          V65   1.876       .  S
O59          C69   1.257       .  A
O60          V65   1.867       .  S
O60          C70   1.256       .  A
O61          V66   1.927       .  S
O61          C70   1.272       .  A
O62          V66   1.922       .  S
O62          C69   1.273       .  A
O63          V66   1.879       .  S
O63          C68   1.257       .  A
O64          V66   1.889       .  S
O64          C67   1.260       .  A
V65          V66   2.074       .  T
C67         C396   1.483       .  S
C68         C416   1.467       .  S
C69         C436   1.491       .  S
C70         C406   1.487       .  S
O71          V79   1.931       .  S
O71          C81   1.272       .  A
O72          V79   1.924       .  S
O72          C82   1.271       .  A
O73          V79   1.897       .  S
O73          C83   1.263       .  A
O74          V79   1.884       .  S
O74          C84   1.260       .  A
O75          V80   1.915       .  S
O75          C84   1.268       .  A
O76          V80   1.917       .  S
O76          C83   1.270       .  A
O77          V80   1.869       .  S
O77          C82   1.255       .  A
O78          V80   1.886       .  S
O78          C81   1.260       .  A
V79          V80   2.083       .  T
C81         C376   1.491       .  S
C82         C419   1.468       .  S
C83         C459   1.504       .  S
C84         C386   1.481       .  S
O85          V93   1.936       .  S
O85          C95   1.274       .  A
O86          V93   1.925       .  S
O86          C96   1.272       .  A
O87          V93   1.865       .  S
O87          C97   1.254       .  A
O88          V93   1.878       .  S
O88          C98   1.255       .  A
O89          V94   1.927       .  S
O89          C98   1.276       .  A
O90          V94   1.932       .  S
O90          C97   1.274       .  A
O91          V94   1.887       .  S
O91          C96   1.259       .  A
O92          V94   1.893       .  S
O92          C95   1.260       .  A
V93          V94   2.075       .  T
C95         C356   1.492       .  S
C96         C366   1.480       .  S
C97         C409   1.489       .  S
C98         C486   1.490       .  S
O99         V107   1.931       .  S
O99         C109   1.271       .  A
O100        V107   1.929       .  S
O100        C110   1.272       .  A
O101        V107   1.879       .  S
O101        C111   1.260       .  A
O102        V107   1.891       .  S
O102        C112   1.260       .  A
O103        V108   1.910       .  S
O103        C112   1.269       .  A
O104        V108   1.918       .  S
O104        C111   1.268       .  A
O105        V108   1.882       .  S
O105        C110   1.258       .  A
O106        V108   1.887       .  S
O106        C109   1.262       .  A
V107        V108   2.081       .  T
C109        C349   1.495       .  S
C110        C369   1.479       .  S
C111        C389   1.478       .  S
C112        C519   1.493       .  S
O113        V121   1.932       .  S
O113        C123   1.272       .  A
O114        V121   1.924       .  S
O114        C124   1.271       .  A
O115        V121   1.893       .  S
O115        C125   1.261       .  A
O116        V121   1.892       .  S
O116        C126   1.262       .  A
O117        V122   1.921       .  S
O117        C126   1.269       .  A
O118        V122   1.920       .  S
O118        C125   1.270       .  A
O119        V122   1.875       .  S
O119        C124   1.258       .  A
O120        V122   1.883       .  S
O120        C123   1.260       .  A
V121        V122   2.082       .  T
C123        C509   1.488       .  S
C124        C339   1.491   1_455  S
C125        C319   1.482       .  S
C126        C326   1.491       .  S
O127        V135   1.919       .  S
O127        C137   1.268       .  A
O128        V135   1.914       .  S
O128        C138   1.270       .  A
O129        V135   1.889       .  S
O129        C139   1.260       .  A
O130        V135   1.883       .  S
O130        C140   1.260       .  A
O131        V136   1.936       .  S
O131        C140   1.273       .  A
O132        V136   1.933       .  S
O132        C139   1.274       .  A
O133        V136   1.885       .  S
O133        C138   1.258       .  A
O134        V136   1.885       .  S
O134        C137   1.260       .  A
V135        V136   2.085       .  T
C137        C479   1.478       .  S
C138        C336   1.478       .  S
C139        C299   1.500       .  S
C140        C306   1.495       .  S
O141        V149   1.934       .  S
O141        C151   1.273       .  A
O142        V149   1.927       .  S
O142        C152   1.273       .  A
O143        V149   1.883       .  S
O143        C153   1.259       .  A
O144        V149   1.886       .  S
O144        C154   1.258       .  A
O145        V150   1.933       .  S
O145        C154   1.273       .  A
O146        V150   1.930       .  S
O146        C153   1.272       .  A
O147        V150   1.871       .  S
O147        C152   1.255       .  A
O148        V150   1.882       .  S
O148        C151   1.259       .  A
V149        V150   2.080       .  T
C151        C446   1.489       .  S
C152        C286   1.491   1_455  S
C153        C329   1.490       .  S
C154        C276   1.486       .  S
O155        V163   1.917       .  S
O155        C165   1.267       .  A
O156        V163   1.912       .  S
O156        C166   1.268       .  A
O157        V163   1.892       .  S
O157        C167   1.263       .  A
O158        V163   1.897       .  S
O158        C168   1.262       .  A
O159        V164   1.918       .  S
O159        C168   1.271       .  A
O160        V164   1.926       .  S
O160        C167   1.270       .  A
O161        V164   1.883       .  S
O161        C166   1.258       .  A
O162        V164   1.881       .  S
O162        C165   1.259       .  A
V163        V164   2.086       .  T
C165        C429   1.472       .  S
C166        C289   1.474       .  S
C167        C309   1.495       .  S
C168        C269   1.498       .  S
O169        V177   1.934       .  S
O169        C179   1.272       .  A
O170        V177   1.923       .  S
O170        C180   1.273       .  A
O171        V177   1.888       .  S
O171        C181   1.260       .  A
O172        V177   1.891       .  S
O172        C182   1.259       .  A
O173        V178   1.930       .  S
O173        C182   1.272       .  A
O174        V178   1.933       .  S
O174        C181   1.273       .  A
O175        V178   1.876       .  S
O175        C180   1.256       .  A
O176        V178   1.877       .  S
O176        C179   1.259       .  A
V177        V178   2.083       .  T
C179        C379   1.487       .  S
C180        C256   1.487       .  S
C181        C246   1.494       .  S
C182        C266   1.487       .  S
O183        V191   1.932       .  S
O183        C193   1.272       .  A
O184        V191   1.913       .  S
O184        C194   1.269       .  A
O185        V191   1.875       .  S
O185        C195   1.258       .  A
O186        V191   1.882       .  S
O186        C196   1.259       .  A
O187        V192   1.932       .  S
O187        C196   1.274       .  A
O188        V192   1.938       .  S
O188        C195   1.273       .  A
O189        V192   1.889       .  S
O189        C194   1.260       .  A
O190        V192   1.891       .  S
O190        C193   1.260       .  A
V191        V192   2.077       .  T
C193        C399   1.488       .  S
C194        C259   1.479       .  S
C195        C236   1.508       .  S
C196        C279   1.502       .  S
O197        V205   1.942       .  S
O197        C207   1.275       .  A
O198        V205   1.931       .  S
O198        C208   1.275       .  A
O199        V205   1.898       .  S
O199        C209   1.260       .  A
O200        V205   1.886       .  S
O200        C210   1.259       .  A
O201        V206   1.935       .  S
O201        C210   1.273       .  A
O202        V206   1.936       .  S
O202        C209   1.275       .  A
O203        V206   1.864       .  S
O203        C208   1.252       .  A
O204        V206   1.878       .  S
O204        C207   1.258       .  A
V205        V206   2.079       .  T
C207        C346   1.497       .  S
C208        C226   1.485       .  S
C209        C296   1.497       .  S
C210        C249   1.494       .  S
O211        V219   1.932       .  S
O211        C221   1.272       .  A
O212        V219   1.912       .  S
O212        C222   1.269       .  A
O213        V219   1.875       .  S
O213        C223   1.256       .  A
O214        V219   1.873       .  S
O214        C224   1.255       .  A
O215        V220   1.940       .  S
O215        C224   1.276       .  A
O216        V220   1.933       .  S
O216        C223   1.275       .  A
O217        V220   1.887       .  S
O217        C222   1.259       .  A
O218        V220   1.883       .  S
O218        C221   1.258       .  A
V219        V220   2.078       .  T
C221        C359   1.483       .  S
C222        C229   1.476       .  S
C223        C316   1.502       .  S
C224        C239   1.507       .  S
C225        C226   1.411       .  A
C225        C230   1.410       .  A
C225       Br232   1.931       .  S
C226        C227   1.424       .  A
C227        C228   1.406       .  A
C227       Br234   1.940       .  S
C228        C229   1.405   1_655  A
C228       Br233   1.935   1_655  S
C229        C230   1.411   1_455  A
C230       Br231   1.927       .  S
C235        C236   1.419       .  A
C235        C240   1.423       .  A
C235       Br242   1.929       .  S
C236        C237   1.422       .  A
C237        C238   1.406       .  A
C237       Br244   1.950       .  S
C238        C239   1.424       .  A
C238       Br243   1.949       .  S
C239        C240   1.418       .  A
C240       Br241   1.930       .  S
C245        C246   1.413       .  A
C245        C250   1.406       .  A
C245       Br252   1.935       .  S
C246        C247   1.415       .  A
C247        C248   1.422       .  A
C247       Br254   1.926       .  S
C248        C249   1.413       .  A
C248       Br253   1.926       .  S
C249        C250   1.413       .  A
C250       Br251   1.933       .  S
C255        C256   1.422       .  A
C255        C260   1.408       .  A
C255       Br262   1.937       .  S
C256        C257   1.411       .  A
C257        C258   1.409       .  A
C257       Br264   1.932       .  S
C258        C259   1.412   1_655  A
C258       Br263   1.928       .  S
C259        C260   1.407   1_455  A
C260       Br261   1.934   1_655  S
C265        C266   1.410       .  A
C265        C270   1.411       .  A
C265       Br272   1.927       .  S
C266        C267   1.408       .  A
C267        C268   1.416       .  A
C267       Br274   1.928       .  S
C268        C269   1.420       .  A
C268       Br273   1.932       .  S
C269        C270   1.416       .  A
C270       Br271   1.933       .  S
C275        C276   1.411       .  A
C275        C280   1.416       .  A
C275       Br282   1.927       .  S
C276        C277   1.403       .  A
C277        C278   1.411       .  A
C277       Br284   1.926       .  S
C278        C279   1.422       .  A
C278       Br283   1.933       .  S
C279        C280   1.419       .  A
C280       Br281   1.932       .  S
C285        C286   1.425       .  A
C285        C290   1.406       .  A
C285       Br292   1.939       .  S
C286        C287   1.415       .  A
C287        C288   1.411       .  A
C287       Br294   1.931   1_655  S
C288        C289   1.411       .  A
C288       Br293   1.933       .  S
C289        C290   1.404       .  A
C290       Br291   1.936       .  S
C295        C296   1.408       .  A
C295        C300   1.415       .  A
C295       Br302   1.929       .  S
C296        C297   1.415       .  A
C297        C298   1.416       .  A
C297       Br304   1.922       .  S
C298        C299   1.413       .  A
C298       Br303   1.932       .  S
C299        C300   1.419       .  A
C300       Br301   1.931       .  S
C305        C306   1.414       .  A
C305        C310   1.405   1_554  A
C305       Br312   1.936       .  S
C306        C307   1.414       .  A
C307        C308   1.422   1_554  A
C307       Br314   1.926       .  S
C308        C309   1.416       .  A
C308       Br313   1.927       .  S
C309        C310   1.413       .  A
C310       Br311   1.937       .  S
C315        C316   1.426       .  A
C315        C320   1.409       .  A
C315       Br322   1.936       .  S
C316        C317   1.419       .  A
C317        C318   1.416       .  A
C317       Br324   1.932       .  S
C318        C319   1.411       .  A
C318       Br323   1.930       .  S
C319        C320   1.401       .  A
C320       Br321   1.931       .  S
C325        C326   1.412       .  A
C325        C330   1.405   1_554  A
C325       Br332   1.935       .  S
C326        C327   1.414       .  A
C327        C328   1.419   1_554  A
C327       Br334   1.926       .  S
C328        C329   1.412       .  A
C328       Br333   1.926       .  S
C329        C330   1.413       .  A
C330       Br331   1.935       .  S
C335        C336   1.414       .  A
C335        C340   1.413       .  A
C335       Br342   1.933       .  S
C336        C337   1.404       .  A
C337        C338   1.406       .  A
C337       Br344   1.935       .  S
C338        C339   1.423       .  A
C338       Br343   1.938       .  S
C339        C340   1.415       .  A
C340       Br341   1.932   1_655  S
C345        C346   1.416       .  A
C345        C350   1.401       .  A
C345       Br352   1.934       .  S
C346        C347   1.413       .  A
C347        C348   1.425       .  A
C347       Br354   1.923       .  S
C348        C349   1.416       .  A
C348       Br353   1.924       .  S
C349        C350   1.413       .  A
C350       Br351   1.940       .  S
C355        C356   1.412       .  A
C355        C360   1.416       .  A
C355       Br362   1.926       .  S
C356        C357   1.413       .  A
C357        C358   1.408       .  A
C357       Br364   1.915       .  S
C358        C359   1.405       .  A
C358       Br363   1.925       .  S
C359        C360   1.411       .  A
C360       Br361   1.927       .  S
C365        C366   1.411       .  A
C365        C370   1.409       .  A
C365       Br372   1.929       .  S
C366        C367   1.410       .  A
C367        C368   1.413       .  A
C367       Br374   1.929       .  S
C368        C369   1.411   1_565  A
C368       Br373   1.926   1_565  S
C369        C370   1.409   1_545  A
C370       Br371   1.930   1_565  S
C375        C376   1.414       .  A
C375        C380   1.423       .  A
C375       Br382   1.924       .  S
C376        C377   1.414       .  A
C377        C378   1.398       .  A
C377       Br384   1.929       .  S
C378        C379   1.409       .  A
C378       Br383   1.937       .  S
C379        C380   1.413       .  A
C380       Br381   1.923       .  S
C385        C386   1.413       .  A
C385        C390   1.414       .  A
C385       Br392   1.926       .  S
C386        C387   1.413       .  A
C387        C388   1.401       .  A
C387       Br394   1.935       .  S
C388        C389   1.409       .  A
C388       Br393   1.935       .  S
C389        C390   1.410       .  A
C390       Br391   1.926       .  S
C395        C396   1.411       .  A
C395        C400   1.418       .  A
C395       Br402   1.927       .  S
C396        C397   1.407       .  A
C397        C398   1.403       .  A
C397       Br404   1.923       .  S
C398        C399   1.409       .  A
C398       Br403   1.917       .  S
C399        C400   1.413       .  A
C400       Br401   1.923       .  S
C405        C406   1.414       .  A
C405        C410   1.417       .  A
C405       Br412   1.929       .  S
C406        C407   1.417       .  A
C407        C408   1.399       .  A
C407       Br414   1.948       .  S
C408        C409   1.422       .  A
C408       Br413   1.949       .  S
C409        C410   1.414       .  A
C410       Br411   1.929       .  S
C415        C416   1.406       .  A
C415        C420   1.401       .  A
C415       Br422   1.929       .  S
C416        C417   1.410       .  A
C417        C418   1.410       .  A
C417       Br424   1.929       .  S
C418        C419   1.409   1_565  A
C418       Br423   1.928   1_565  S
C419        C420   1.409   1_545  A
C420       Br421   1.929   1_565  S
C425        C426   1.411       .  A
C425        C430   1.410       .  A
C425       Br432   1.930       .  S
C426        C427   1.412       .  A
C427        C428   1.406       .  A
C427       Br434   1.919       .  S
C428        C429   1.404       .  A
C428       Br433   1.931       .  S
C429        C430   1.409       .  A
C430       Br431   1.929       .  S
C435        C436   1.408       .  A
C435        C440   1.408       .  A
C435       Br442   1.935       .  S
C436        C437   1.423       .  A
C437        C438   1.410       .  A
C437       Br444   1.938       .  S
C438        C439   1.410       .  A
C438       Br443   1.935       .  S
C439        C440   1.425       .  A
C440       Br441   1.940       .  S
C445        C446   1.414       .  A
C445        C450   1.401       .  A
C445       Br452   1.932       .  S
C446        C447   1.413       .  A
C447        C448   1.419       .  A
C447       Br454   1.922       .  S
C448        C449   1.411       .  A
C448       Br453   1.926       .  S
C449        C450   1.409       .  A
C450       Br451   1.934       .  S
C455        C456   1.421       .  A
C455        C460   1.413       .  A
C455       Br462   1.938       .  S
C456        C457   1.411       .  A
C457        C458   1.416       .  A
C457       Br464   1.932       .  S
C458        C459   1.424       .  A
C458       Br463   1.936       .  S
C459        C460   1.414       .  A
C460       Br461   1.934       .  S
C465        C466   1.407       .  A
C465        C470   1.404       .  A
C465       Br472   1.927       .  S
C466        C467   1.411       .  A
C467        C468   1.411       .  A
C467       Br474   1.929       .  S
C468        C469   1.408   1_565  A
C468       Br473   1.928   1_565  S
C469        C470   1.411   1_545  A
C470       Br471   1.931   1_565  S
C475        C476   1.412       .  A
C475        C480   1.407       .  A
C475       Br482   1.933       .  S
C476        C477   1.415       .  A
C477        C478   1.413       .  A
C477       Br484   1.917       .  S
C478        C479   1.407       .  A
C478       Br483   1.931       .  S
C479        C480   1.408       .  A
C480       Br481   1.929       .  S
C485        C486   1.403       .  A
C485        C490   1.409       .  A
C485       Br492   1.933       .  S
C486        C487   1.421       .  A
C487        C488   1.411       .  A
C487       Br494   1.936       .  S
C488        C489   1.412       .  A
C488       Br493   1.935       .  S
C489        C490   1.432       .  A
C490       Br491   1.939       .  S
C495        C496   1.417       .  A
C495        C500   1.398   1_556  A
C495       Br502   1.951       .  S
C496        C497   1.414       .  A
C497        C498   1.418   1_556  A
C497       Br504   1.929       .  S
C498        C499   1.416       .  A
C498       Br503   1.929       .  S
C499        C500   1.423       .  A
C500       Br501   1.951       .  S
C505        C506   1.414       .  A
C505        C510   1.422       .  A
C505       Br512   1.926       .  S
C506        C507   1.409       .  A
C507        C508   1.398       .  A
C507       Br514   1.935       .  S
C508        C509   1.413       .  A
C508       Br513   1.932       .  S
C509        C510   1.414       .  A
C510       Br511   1.925       .  S
C515        C516   1.419       .  A
C515        C520   1.408       .  A
C515       Br522   1.936       .  S
C516        C517   1.412       .  A
C517        C518   1.412       .  A
C517       Br524   1.934       .  S
C518        C519   1.421       .  A
C518       Br523   1.936       .  S
C519        C520   1.412       .  A
C520       Br521   1.936       .  S
C525        C526   1.413       .  A
C525        C530   1.417   1_556  A
C525       Br532   1.927       .  S
C526        C527   1.415       .  A
C527        C528   1.405   1_556  A
C527       Br534   1.936       .  S
C528        C529   1.411       .  A
C528       Br533   1.936       .  S
C529        C530   1.413       .  A
C530       Br531   1.929       .  S
C535        C536   1.409       .  A
C535        C540   1.411   1_545  A
C535       Br542   1.929       .  S
C536        C537   1.411   1_545  A
C537        C538   1.404       .  A
C537       Br544   1.934   1_565  S
C538        C539   1.408       .  A
C538       Br543   1.927       .  S
C539        C540   1.412       .  A
C540       Br541   1.929       .  S
