geometry optimzed in LAMMPS
_audit_creation_date              2020-12-01 
_audit_creation_method            'lammps2cif' 
_symmetry_space_group_name_H-M    'P1' 
_symmetry_Int_Tables_number       1 
_symmetry_cell_setting            triclinic 
loop_ 
_symmetry_equiv_pos_as_xyz 
  x,y,z 
_cell_length_a                    68.17120386 
_cell_length_b                    68.1499171324998 
_cell_length_c                    68.14784230685977 
_cell_angle_alpha                 89.97132327405062 
_cell_angle_beta                  90.02111444537638 
_cell_angle_gamma                 89.98254498532106 
loop_ 
_atom_site_label 
_atom_site_type_symbol 
_atom_site_fract_x 
_atom_site_fract_y 
_atom_site_fract_z 
_atom_site_charge 
O1          O  0.02959708  0.50701198  0.84405092    -0.71300
O2          O  0.04262624  0.47543191  0.88871249    -0.71500
O3          O  0.06169037  0.48755206  0.85662321    -0.71300
O4          O  0.01049572  0.49502915  0.87688073    -0.71400
O5          O  0.99970846  0.47071478  0.85930472    -0.71300
O6          O  0.05229043  0.46028191  0.84303389    -0.71300
O7          O  0.02986950  0.45018404  0.87399987    -0.71300
O8          O  0.02203743  0.48039988  0.82821402    -0.71500
V9          V  0.03584147  0.49084724  0.86624585     1.35200
V10         V  0.02616024  0.46590553  0.85140704     1.35200
C11         C  0.02436791  0.49875209  0.82822114     0.78000
C12         C  0.03804340  0.45741984  0.88894687     0.78000
C13         C  0.06590316  0.47229290  0.84702258     0.77900
C14         C  0.99641521  0.48418631  0.87165307     0.77900
O15         O  0.02940598  0.34692507  0.03296905    -0.71300
O16         O  0.05280333  0.39670878  0.04373187    -0.71500
O17         O  0.03923933  0.37874274  0.01146126    -0.71300
O18         O  0.04284524  0.36522579  0.06537950    -0.71400
O19         O  0.06998769  0.34955217  0.05949931    -0.71300
O20         O  0.06954885  0.36976787  0.00732449    -0.71300
O21         O  0.08155016  0.38298880  0.04237226    -0.71300
O22         O  0.05802082  0.33546422  0.02488271    -0.71500
V23         V  0.04155077  0.37162853  0.03827540     1.35200
V24         V  0.06923624  0.35962597  0.03349945     1.35200
C25         C  0.03979850  0.33266109  0.02711390     0.78000
C26         C  0.07124537  0.39808351  0.04546133     0.78000
C27         C  0.05420214  0.37779072  0.00057950     0.77900
C28         C  0.05686381  0.35475821  0.07152787     0.77900
O29         O  0.82597083  0.50206428  0.98369920    -0.71300
O30         O  0.87521510  0.49555135  0.95788639    -0.71500
O31         O  0.85585809  0.52592152  0.97360364    -0.71300
O32         O  0.84572463  0.47151530  0.96822256    -0.71400
O33         O  0.82961808  0.47713163  0.94126261    -0.71300
O34         O  0.84437524  0.53099475  0.94427598    -0.71300
O35         O  0.86057886  0.49836687  0.92968800    -0.71300
O36         O  0.81251762  0.50943061  0.95574163    -0.71500
V37         V  0.85037895  0.49885967  0.97034874     1.35200
V38         V  0.83695792  0.50396502  0.94331214     1.35200
C39         C  0.81081891  0.50684102  0.97404725     0.78000
C40         C  0.87614482  0.49556260  0.93932289     0.78000
C41         C  0.85296514  0.53747989  0.95942439     0.77900
C42         C  0.83583217  0.46508039  0.95394472     0.77900
O43         O  0.17087531  0.54678915  0.03180956    -0.71300
O44         O  0.12933257  0.56396782  0.06566013    -0.71500
O45         O  0.16232197  0.58008805  0.05129258    -0.71300
O46         O  0.13722916  0.53079945  0.04603291    -0.71400
O47         O  0.15482409  0.51903180  0.06988516    -0.71300
O48         O  0.17681907  0.57002130  0.07785209    -0.71300
O49         O  0.14448419  0.55084276  0.09045859    -0.71300
O50         O  0.18744170  0.53804586  0.05760446    -0.71500
V51         V  0.15026403  0.55515406  0.04912678     1.35200
V52         V  0.16562577  0.54466729  0.07343340     1.35200
C53         C  0.18664402  0.54023460  0.03922691     0.78000
C54         C  0.12971889  0.55983508  0.08380545     0.78000
C55         C  0.17336022  0.58369500  0.06571637     0.77900
C56         C  0.14150249  0.51660323  0.05715445     0.77900
O57         O  0.98436917  0.55707896  0.18983111    -0.71300
O58         O  0.97568515  0.58304114  0.14120767    -0.71500
O59         O  0.00715085  0.56790536  0.15946584    -0.71300
O60         O  0.95290999  0.57212365  0.17141836    -0.71400
O61         O  0.95853854  0.59875359  0.18801311    -0.71300
O62         O  0.01184640  0.59734680  0.17077213    -0.71300
O63         O  0.97802462  0.61121862  0.15592423    -0.71300
O64         O  0.99206987  0.58491819  0.20331170    -0.71500
V65         V  0.98014243  0.57055998  0.16578156     1.35200
V66         V  0.98510627  0.59754456  0.17928632     1.35200
C67         C  0.98973748  0.56655615  0.20485490     0.78000
C68         C  0.97484850  0.60156632  0.14039552     0.78000
C69         C  0.01850147  0.58229538  0.16213715     0.77900
C70         C  0.94654713  0.58586041  0.18211716     0.77900
O71         O  0.97813672  0.69536268  0.98837185    -0.71300
O72         O  0.94586030  0.65182335  0.97354487    -0.71500
O73         O  0.95934337  0.68395145  0.95570499    -0.71300
O74         O  0.96477959  0.66228216  0.00639755    -0.71400
O75         O  0.94102133  0.68068982  0.01703950    -0.71300
O76         O  0.93182404  0.69757791  0.96430543    -0.71300
O77         O  0.92072109  0.66664211  0.98638399    -0.71300
O78         O  0.95173906  0.71194940  0.99498647    -0.71500
V79         V  0.96162324  0.67368675  0.98127258     1.35200
V80         V  0.93681397  0.68896004  0.99053845     1.35200
C81         C  0.97016199  0.71148702  0.99318075     0.78000
C82         C  0.92780019  0.65177331  0.97790798     0.78000
C83         C  0.94431661  0.69368924  0.95109999     0.77900
C84         C  0.95384994  0.66764226  0.02033682     0.77900
O85         O  0.84021595  0.54984220  0.53282944    -0.71300
O86         O  0.88453048  0.56217338  0.56557116    -0.71500
O87         O  0.87327109  0.53073808  0.54463473    -0.71300
O88         O  0.85249895  0.58121048  0.55334164    -0.71400
O89         O  0.83775712  0.57092707  0.57968901    -0.71300
O90         O  0.85636559  0.51903427  0.56899765    -0.71300
O91         O  0.86921004  0.54932501  0.59040660    -0.71300
O92         O  0.82447179  0.54043137  0.55887720    -0.71500
V93         V  0.86230391  0.55569959  0.54952152     1.35200
V94         V  0.84722371  0.54512659  0.57397559     1.35200
C95         C  0.82444326  0.54371669  0.54066038     0.78000
C96         C  0.88432680  0.55752020  0.58359888     0.78000
C97         C  0.86876501  0.51638253  0.55539506     0.77900
C98         C  0.84202478  0.58484545  0.56810573     0.77900
O99         O  0.98454982  0.34852809  0.53150205    -0.71300
O100        O  0.95946499  0.39818256  0.53855492    -0.71500
O101        O  0.96865578  0.36791371  0.56232989    -0.71300
O102        O  0.97548034  0.37897618  0.50818135    -0.71400
O103        O  0.94590911  0.36851668  0.50241245    -0.71300
O104        O  0.94187708  0.35199133  0.55555906    -0.71300
O105        O  0.93115094  0.38388052  0.53537943    -0.71300
O106        O  0.95659842  0.33594951  0.52275443    -0.71500
V107        V  0.97155655  0.37310690  0.53505705     1.35200
V108        V  0.94444773  0.36027461  0.52908210     1.35200
C109        C  0.97481474  0.33385291  0.52554958     0.78000
C110        C  0.94091552  0.39928530  0.53856984     0.78000
C111        C  0.95419070  0.35786954  0.56812894     0.77900
C112        C  0.96142385  0.37669248  0.49635058     0.77900
O113        O  0.98382125  0.50871035  0.34301491    -0.71300
O114        O  0.97485359  0.47673044  0.38829130    -0.71500
O115        O  0.00528009  0.49739131  0.37467319    -0.71300
O116        O  0.95328329  0.48793624  0.35767250    -0.71400
O117        O  0.96288394  0.46131219  0.34297207    -0.71300
O118        O  0.01591654  0.47326667  0.35673846    -0.71300
O119        O  0.98727396  0.45184720  0.37266022    -0.71300
O120        O  0.99170312  0.48251495  0.32665484    -0.71500
V121        V  0.97956349  0.49231311  0.36551254     1.35200
V122        V  0.98925344  0.46776139  0.35000608     1.35200
C123        C  0.98868771  0.50077274  0.32689805     0.78000
C124        C  0.97996400  0.45888157  0.38812736     0.78000
C125        C  0.01932137  0.48665689  0.36914907     0.77900
C126        C  0.94906868  0.47259816  0.34820341     0.77900
O127        O  0.18611646  0.50599255  0.48575669    -0.71300
O128        O  0.13847103  0.49656732  0.45795208    -0.71500
O129        O  0.16878626  0.47439167  0.46961316    -0.71300
O130        O  0.15509494  0.52804350  0.47407377    -0.71400
O131        O  0.16827738  0.53385057  0.44560526    -0.71300
O132        O  0.18506777  0.48064031  0.44290979    -0.71300
O133        O  0.15379344  0.50080337  0.43031022    -0.71300
O134        O  0.20040686  0.51343421  0.45825581    -0.71500
V135        V  0.16248896  0.50139351  0.47137028     1.35200
V136        V  0.17670016  0.50716148  0.44486122     1.35200
C137        C  0.20150510  0.51100964  0.47663344     0.78000
C138        C  0.13811864  0.49693478  0.43938271     0.78000
C139        C  0.17906167  0.46835332  0.45544953     0.77900
C140        C  0.15812879  0.53968724  0.46000672     0.77900
O141        O  0.02875729  0.55449824  0.69172147    -0.71300
O142        O  0.03665698  0.57962641  0.64239139    -0.71500
O143        O  0.05984857  0.56916772  0.67263741    -0.71300
O144        O  0.00568985  0.56454207  0.66138960    -0.71400
O145        O  0.00097614  0.59430678  0.67181703    -0.71300
O146        O  0.05434786  0.59603246  0.68890810    -0.71300
O147        O  0.03473684  0.60798835  0.65682643    -0.71300
O148        O  0.02090964  0.58263569  0.70451416    -0.71500
V149        V  0.03264889  0.56747623  0.66730637     1.35200
V150        V  0.02774636  0.59471367  0.68031475     1.35200
C151        C  0.02345434  0.56437256  0.70651756     0.78000
C152        C  0.03747672  0.59816808  0.64136160     0.78000
C153        C  0.06627668  0.58303965  0.68309566     0.77900
C154        C  0.99434130  0.57898028  0.66363472     0.77900
O155        O  0.02728814  0.69405984  0.48780472    -0.71300
O156        O  0.05897020  0.64925058  0.47608956    -0.71500
O157        O  0.03977258  0.66197311  0.50794645    -0.71300
O158        O  0.04631441  0.68051187  0.45608040    -0.71400
O159        O  0.07284257  0.69595662  0.46468393    -0.71300
O160        O  0.06500972  0.67884354  0.51765297    -0.71300
O161        O  0.08464812  0.66508985  0.48638174    -0.71300
O162        O  0.05362355  0.71010275  0.49585581    -0.71500
V163        V  0.04353342  0.67180827  0.48224898     1.35200
V164        V  0.06850195  0.68721457  0.49101518     1.35200
C165        C  0.03532856  0.70997977  0.49307684     0.78000
C166        C  0.07726573  0.64966276  0.47929868     0.78000
C167        C  0.05141992  0.66675409  0.52152422     0.77900
C168        C  0.06083833  0.69095595  0.45138883     0.77900
O169        O  0.52691651  0.53795558  0.84065346    -0.71300
O170        O  0.53762239  0.56629356  0.88763815    -0.71500
O171        O  0.50663469  0.54725432  0.87355069    -0.71300
O172        O  0.55815972  0.55720636  0.85535681    -0.71400
O173        O  0.54805188  0.58354517  0.84044786    -0.71300
O174        O  0.49654341  0.57437876  0.86011592    -0.71300
O175        O  0.52874256  0.59332537  0.87318072    -0.71300
O176        O  0.51633934  0.56479773  0.82704395    -0.71500
V177        V  0.53211923  0.55264601  0.86393629     1.35200
V178        V  0.52252210  0.57845747  0.85046286     1.35200
C179        C  0.52012457  0.54670183  0.82572963     0.78000
C180        C  0.53520329  0.58467046  0.88824663     0.78000
C181        C  0.49302525  0.55947877  0.87064407     0.77900
C182        C  0.56193348  0.57213527  0.84504239     0.77900
O183        O  0.32207089  0.53687833  0.98004712    -0.71300
O184        O  0.37043916  0.54505466  0.95350419    -0.71500
O185        O  0.34055293  0.56827667  0.96493237    -0.71300
O186        O  0.35227273  0.51398533  0.96851491    -0.71400
O187        O  0.33909358  0.50915726  0.93985494    -0.71300
O188        O  0.32463246  0.56306098  0.93779628    -0.71300
O189        O  0.35552848  0.54194292  0.92548245    -0.71300
O190        O  0.30775070  0.53059403  0.95226446    -0.71500
V191        V  0.34596481  0.54095184  0.96624354     1.35200
V192        V  0.33197102  0.53622097  0.93940749     1.35200
C193        C  0.30664886  0.53246117  0.97070193     0.78000
C194        C  0.37118568  0.54497969  0.93497513     0.78000
C195        C  0.33056222  0.57490233  0.95077500     0.77900
C196        C  0.34870238  0.50263780  0.95433425     0.77900
O197        O  0.47138733  0.34442291  0.99207170    -0.71300
O198        O  0.44137136  0.38927711  0.97685185    -0.71500
O199        O  0.45762846  0.37700651  0.01030193    -0.71300
O200        O  0.45539728  0.35745462  0.95851876    -0.71400
O201        O  0.42786338  0.34273770  0.96492660    -0.71300
O202        O  0.43163474  0.36033639  0.01823622    -0.71300
O203        O  0.41469603  0.37399590  0.98526596    -0.71300
O204        O  0.44432269  0.32858811  0.99776251    -0.71500
V205        V  0.45595906  0.36667927  0.98464700     1.35200
V206        V  0.43015692  0.35168108  0.99147065     1.35200
C207        C  0.46280849  0.32858842  0.99672186     0.78000
C208        C  0.42287794  0.38924069  0.97865694     0.78000
C209        C  0.44492982  0.37246345  0.02295019     0.77900
C210        C  0.44115206  0.34720579  0.95269374     0.77900
O211        O  0.48340471  0.48838206  0.18632985    -0.71300
O212        O  0.46680123  0.45890956  0.14163730    -0.71500
O213        O  0.44991723  0.47114265  0.17506499    -0.71300
O214        O  0.50004906  0.47631194  0.15223870    -0.71400
O215        O  0.51017066  0.45022665  0.16754182    -0.71300
O216        O  0.45833994  0.44351445  0.18857864    -0.71300
O217        O  0.47698373  0.43210657  0.15559739    -0.71300
O218        O  0.49119357  0.46119143  0.20104787    -0.71500
V219        V  0.47526733  0.47317584  0.16416837     1.35200
V220        V  0.48409447  0.44728491  0.17794655     1.35200
C221        C  0.48931162  0.47962763  0.20164374     0.78000
C222        C  0.46931933  0.44051165  0.14094051     0.78000
C223        C  0.44534935  0.45641987  0.18529670     0.77900
C224        C  0.51349658  0.46403845  0.15548248     0.77900
O225        O  0.52459884  0.69326152  0.03455124    -0.71300
O226        O  0.55376124  0.64654119  0.04554505    -0.71500
O227        O  0.54357026  0.67845987  0.06590013    -0.71300
O228        O  0.53476316  0.66035137  0.01442100    -0.71400
O229        O  0.56154724  0.67451526  0.00447448    -0.71300
O230        O  0.57003013  0.69356255  0.05646626    -0.71300
O231        O  0.58045159  0.66136968  0.03638601    -0.71300
O232        O  0.55141804  0.70736016  0.02468947    -0.71500
V233        V  0.53961931  0.67005197  0.03985983     1.35200
V234        V  0.56528981  0.68397885  0.03061200     1.35200
C235        C  0.53326543  0.70845588  0.02818188     0.78000
C236        C  0.57214340  0.64614690  0.04289756     0.78000
C237        C  0.55841276  0.68863861  0.07008670     0.77900
C238        C  0.54717799  0.66325007  0.00103717     0.77900
O239        O  0.67461815  0.49814438  0.03364346    -0.71300
O240        O  0.62943438  0.48419037  0.06378715    -0.71500
O241        O  0.64163579  0.51678086  0.04614013    -0.71300
O242        O  0.66189511  0.46520424  0.05152976    -0.71400
O243        O  0.67753885  0.47410554  0.07785052    -0.71300
O244        O  0.65646453  0.52561428  0.07297196    -0.71300
O245        O  0.64485962  0.49212950  0.09053067    -0.71300
O246        O  0.68939642  0.50723766  0.06037378    -0.71500
V247        V  0.65226906  0.49128208  0.04923743     1.35200
V248        V  0.66679444  0.49965748  0.07487508     1.35200
C249        C  0.68987027  0.50472432  0.04198970     0.78000
C250        C  0.62947615  0.48581013  0.08229114     0.78000
C251        C  0.64486716  0.52965330  0.05905725     0.77900
C252        C  0.67302211  0.46083636  0.06571414     0.77900
O253        O  0.49172535  0.69450395  0.53100075    -0.71300
O254        O  0.46410025  0.64715743  0.54292148    -0.71500
O255        O  0.48083990  0.66198523  0.51093098    -0.71300
O256        O  0.47513919  0.67892455  0.56326559    -0.71400
O257        O  0.44831278  0.69437091  0.55555469    -0.71300
O258        O  0.45281646  0.67509813  0.50315504    -0.71300
O259        O  0.43657214  0.66201726  0.53672985    -0.71300
O260        O  0.46421752  0.70806176  0.52228247    -0.71500
V261        V  0.47747602  0.67101406  0.53683266     1.35200
V262        V  0.45104568  0.68466360  0.52950063     1.35200
C263        C  0.48250398  0.70944901  0.52484139     0.78000
C264        C  0.44554278  0.64672054  0.54209579     0.78000
C265        C  0.46741662  0.66459600  0.49847937     0.77900
C266        C  0.46069355  0.68924819  0.56841872     0.77900
O267        O  0.48441379  0.53901902  0.33805798    -0.71300
O268        O  0.47614147  0.56888809  0.38458073    -0.71500
O269        O  0.45421120  0.55919430  0.35357953    -0.71300
O270        O  0.50614418  0.54877138  0.36977959    -0.71400
O271        O  0.51612172  0.57567162  0.35585084    -0.71300
O272        O  0.46415052  0.58459312  0.33702651    -0.71300
O273        O  0.48430165  0.59542995  0.36887362    -0.71300
O274        O  0.49554513  0.56507285  0.32343943    -0.71500
V275        V  0.48044435  0.55442943  0.36111031     1.35200
V276        V  0.48993116  0.57965860  0.34654954     1.35200
C277        C  0.49127564  0.54703891  0.32275504     0.78000
C278        C  0.47844763  0.58729954  0.38446703     0.78000
C279        C  0.45027232  0.57373204  0.34282511     0.77900
C280        C  0.51976960  0.56083483  0.36646309     0.77900
O281        O  0.68672646  0.54240381  0.48425499    -0.71300
O282        O  0.63746977  0.54756587  0.45776659    -0.71500
O283        O  0.65739044  0.51772583  0.47380571    -0.71300
O284        O  0.66621518  0.57244782  0.46837968    -0.71400
O285        O  0.68339317  0.56703557  0.44206670    -0.71300
O286        O  0.66878995  0.51313122  0.44437789    -0.71300
O287        O  0.65274349  0.54587719  0.42983026    -0.71300
O288        O  0.70039067  0.53472427  0.45650543    -0.71500
V289        V  0.66228275  0.54494356  0.47060172     1.35200
V290        V  0.67614221  0.54017551  0.44377005     1.35200
C291        C  0.70201722  0.53771748  0.47474657     0.78000
C292        C  0.63692743  0.54807235  0.43918447     0.78000
C293        C  0.66017475  0.50642006  0.45941232     0.77900
C294        C  0.67644165  0.57902854  0.45438934     0.77900
O295        O  0.53438261  0.34835834  0.48798804    -0.71300
O296        O  0.56628533  0.39313766  0.47648055    -0.71500
O297        O  0.55443436  0.36135988  0.45671687    -0.71300
O298        O  0.54594256  0.38079665  0.50788889    -0.71400
O299        O  0.57078489  0.36404968  0.51879184    -0.71300
O300        O  0.58089767  0.34643267  0.46641352    -0.71300
O301        O  0.59158997  0.37777769  0.48833613    -0.71300
O302        O  0.56055793  0.33244591  0.49682590    -0.71500
V303        V  0.55072359  0.37058773  0.48253627     1.35200
V304        V  0.57545183  0.35547301  0.49243591     1.35200
C305        C  0.54234005  0.33247632  0.49355216     0.78000
C306        C  0.58438843  0.39304962  0.48069241     0.78000
C307        C  0.56909128  0.35081290  0.45272599     0.77900
C308        C  0.55696566  0.37607684  0.52200178     0.77900
O309        O  0.52870208  0.49099247  0.68929938    -0.71300
O310        O  0.53887743  0.46510158  0.64077895    -0.71500
O311        O  0.50697797  0.47986682  0.65840395    -0.71300
O312        O  0.56082839  0.47660546  0.67165443    -0.71400
O313        O  0.55505827  0.45013510  0.68849375    -0.71300
O314        O  0.50258768  0.45006585  0.66890190    -0.71300
O315        O  0.53741862  0.43698550  0.65576984    -0.71300
O316        O  0.52058539  0.46296624  0.70217692    -0.71500
V317        V  0.53377343  0.47763178  0.66528812     1.35200
V318        V  0.52893289  0.45054621  0.67861881     1.35200
C319        C  0.52274416  0.48130935  0.70398357     0.78000
C320        C  0.54026758  0.44657743  0.64017086     0.78000
C321        C  0.49586394  0.46522039  0.66047512     0.77900
C322        C  0.56699668  0.46319404  0.68285899     0.77900
O323        O  0.33852303  0.50099058  0.53544444    -0.71300
O324        O  0.38341553  0.48591933  0.56595422    -0.71500
O325        O  0.35033316  0.46838742  0.55441864    -0.71300
O326        O  0.37267462  0.51848859  0.54678961    -0.71400
O327        O  0.35588739  0.53006474  0.57129055    -0.71300
O328        O  0.33813284  0.47786652  0.58230444    -0.71300
O329        O  0.36990951  0.49947901  0.59144911    -0.71300
O330        O  0.32344192  0.50863305  0.56244929    -0.71500
V331        V  0.36089370  0.49373110  0.55104796     1.35200
V332        V  0.34703652  0.50385454  0.57634553     1.35200
C333        C  0.32293312  0.50645112  0.54406389     0.78000
C334        C  0.38432610  0.49065330  0.58391514     0.78000
C335        C  0.34138577  0.46424095  0.57005800     0.77900
C336        C  0.36854751  0.53268303  0.55791774     0.77900
O337        O  0.53014308  0.84921047  0.53341953    -0.71300
O338        O  0.55475028  0.89862861  0.54312180    -0.71500
O339        O  0.53980622  0.88037304  0.51149264    -0.71300
O340        O  0.54471773  0.86767729  0.56530424    -0.71400
O341        O  0.57180048  0.85196359  0.55923577    -0.71300
O342        O  0.56968910  0.87038841  0.50650196    -0.71300
O343        O  0.58323293  0.88451678  0.54064202    -0.71300
O344        O  0.55849262  0.83711487  0.52526131    -0.71500
V345        V  0.54285376  0.87369765  0.53824960     1.35200
V346        V  0.57024884  0.86117641  0.53293252     1.35200
C347        C  0.54022205  0.83482082  0.52734999     0.78000
C348        C  0.57328633  0.89974871  0.54407103     0.78000
C349        C  0.55423148  0.87846007  0.50009254     0.77900
C350        C  0.55897850  0.85756796  0.57142277     0.77900
O351        O  0.52584188  0.00293236  0.34172484    -0.71300
O352        O  0.53836321  0.97043657  0.38579229    -0.71500
O353        O  0.55751915  0.98258930  0.35387661    -0.71300
O354        O  0.50683726  0.99096370  0.37452329    -0.71400
O355        O  0.49521523  0.96718637  0.35676118    -0.71300
O356        O  0.54769467  0.95563604  0.33997644    -0.71300
O357        O  0.52491052  0.94564733  0.37091589    -0.71300
O358        O  0.51773356  0.97674154  0.32547635    -0.71500
V359        V  0.53187999  0.98630132  0.36362918     1.35200
V360        V  0.52157443  0.96178711  0.34852009     1.35200
C361        C  0.52034196  0.99507204  0.32578217     0.78000
C362        C  0.53324063  0.95257889  0.38592054     0.78000
C363        C  0.56152661  0.96738267  0.34414553     0.77900
C364        C  0.49243148  0.98055459  0.36940155     0.77900
O365        O  0.48252044  0.19513186  0.48708918    -0.71300
O366        O  0.44989950  0.15070481  0.47587917    -0.71500
O367        O  0.46176510  0.18232726  0.45612831    -0.71300
O368        O  0.47096340  0.16254996  0.50697702    -0.71400
O369        O  0.44760668  0.18083992  0.51864358    -0.71300
O370        O  0.43463456  0.19584399  0.46599965    -0.71300
O371        O  0.42551317  0.16573179  0.48988225    -0.71300
O372        O  0.45637867  0.21157884  0.49494499    -0.71500
V373        V  0.46589701  0.17301991  0.48180011     1.35200
V374        V  0.44153759  0.18827924  0.49220240     1.35200
C375        C  0.47465461  0.21126936  0.49205930     0.78000
C376        C  0.43214215  0.15069509  0.48138082     0.78000
C377        C  0.44621481  0.19147744  0.45210945     0.77900
C378        C  0.46082229  0.16804179  0.52144591     0.77900
O379        O  0.32465085  0.00512287  0.48452283    -0.71300
O380        O  0.37370598  0.99980508  0.45807758    -0.71500
O381        O  0.35406516  0.02960370  0.47466045    -0.71300
O382        O  0.34463358  0.97520083  0.46809867    -0.71400
O383        O  0.32737539  0.98135188  0.44198408    -0.71300
O384        O  0.34299773  0.03501018  0.44523808    -0.71300
O385        O  0.35851536  0.00215942  0.43013545    -0.71300
O386        O  0.31103334  0.01386845  0.45704731    -0.71500
V387        V  0.34894694  0.00254904  0.47086833     1.35200
V388        V  0.33516788  0.00808945  0.44414039     1.35200
C389        C  0.30947208  0.01052502  0.47524666     0.78000
C390        C  0.37427605  0.99946084  0.43950356     0.78000
C391        C  0.35139274  0.04132827  0.46057187     0.77900
C392        C  0.33422599  0.96902248  0.45406273     0.77900
O393        O  0.48654563  0.05957813  0.69331628    -0.71300
O394        O  0.47762870  0.08423174  0.64387874    -0.71500
O395        O  0.50916259  0.07072996  0.66330591    -0.71300
O396        O  0.45479372  0.07277876  0.67393053    -0.71400
O397        O  0.45896656  0.09992976  0.69014614    -0.71300
O398        O  0.51236600  0.10064738  0.67392503    -0.71300
O399        O  0.47827805  0.11265676  0.65829822    -0.71300
O400        O  0.49273915  0.08807828  0.70621971    -0.71500
V401        V  0.48208033  0.07234708  0.66887266     1.35200
V402        V  0.48558012  0.09979937  0.68191995     1.35200
C403        C  0.49140445  0.06967594  0.70811938     0.78000
C404        C  0.47601305  0.10271487  0.64282007     0.78000
C405        C  0.51982646  0.08558137  0.66606044     0.77900
C406        C  0.44770648  0.08644865  0.68421817     0.77900
O407        O  0.67140903  0.04970588  0.53814171    -0.71300
O408        O  0.62961930  0.06374569  0.57281298    -0.71500
O409        O  0.66106408  0.08182030  0.55857843    -0.71300
O410        O  0.63894556  0.03152696  0.55232045    -0.71400
O411        O  0.65739062  0.02003855  0.57566903    -0.71300
O412        O  0.67671232  0.07202144  0.58459802    -0.71300
O413        O  0.64580157  0.05089641  0.59713105    -0.71300
O414        O  0.68879015  0.04105431  0.56343392    -0.71500
V415        V  0.65062732  0.05640240  0.55587512     1.35200
V416        V  0.66690878  0.04616437  0.57970832     1.35200
C417        C  0.68756360  0.04367381  0.54513751     0.78000
C418        C  0.63067341  0.05953472  0.59087176     0.78000
C419        C  0.67191552  0.08576567  0.57301102     0.77900
C420        C  0.64405149  0.01729696  0.56300055     0.77900
O421        O  0.48240330  0.84842689  0.03171543    -0.71300
O422        O  0.45624724  0.89766017  0.03742870    -0.71500
O423        O  0.46622925  0.86839252  0.06186669    -0.71300
O424        O  0.47265898  0.87813566  0.00762257    -0.71400
O425        O  0.44296982  0.86777954  0.00232364    -0.71300
O426        O  0.44028347  0.85092391  0.05565208    -0.71300
O427        O  0.42824784  0.88251935  0.03558491    -0.71300
O428        O  0.45479394  0.83532970  0.02262884    -0.71500
V429        V  0.46892526  0.87284687  0.03457039     1.35200
V430        V  0.44209962  0.85931197  0.02905778     1.35200
C431        C  0.47294710  0.83349255  0.02595152     0.78000
C432        C  0.43768458  0.89825694  0.03799337     0.78000
C433        C  0.45238226  0.85773350  0.06798278     0.77900
C434        C  0.45840107  0.87599770  0.99602930     0.77900
O435        O  0.33884776  0.04898675  0.03309844    -0.71300
O436        O  0.38329012  0.06246482  0.06497435    -0.71500
O437        O  0.37206175  0.03042913  0.04482121    -0.71300
O438        O  0.35102781  0.08084056  0.05284973    -0.71400
O439        O  0.33698514  0.07101999  0.07976051    -0.71300
O440        O  0.35524987  0.01901761  0.06939241    -0.71300
O441        O  0.36853400  0.04979684  0.09023027    -0.71300
O442        O  0.32322666  0.04034686  0.05949706    -0.71500
V443        V  0.36098996  0.05537570  0.04937054     1.35200
V444        V  0.34627314  0.04518299  0.07420213     1.35200
C445        C  0.32310552  0.04319979  0.04120492     0.78000
C446        C  0.38330224  0.05842718  0.08314634     0.78000
C447        C  0.36745979  0.01617440  0.05566486     0.77900
C448        C  0.34108906  0.08473973  0.06790507     0.77900
O449        O  0.48343812  0.00838843  0.84316784    -0.71300
O450        O  0.47032391  0.97559032  0.88680174    -0.71500
O451        O  0.50199282  0.99649376  0.87625816    -0.71300
O452        O  0.45171618  0.98770785  0.85443852    -0.71400
O453        O  0.46236295  0.96134216  0.84002069    -0.71300
O454        O  0.51403235  0.97245843  0.85913473    -0.71300
O455        O  0.48374956  0.95087674  0.87175527    -0.71300
O456        O  0.49294757  0.98250117  0.82718339    -0.71500
V457        V  0.47713492  0.99161002  0.86483276     1.35200
V458        V  0.48804358  0.96728139  0.84979409     1.35200
C459        C  0.48993587  0.00075755  0.82750001     0.78000
C460        C  0.47528515  0.95768852  0.88672029     0.78000
C461        C  0.51655479  0.98604761  0.87157330     0.77900
C462        C  0.44826905  0.97281994  0.84400721     0.77900
O463        O  0.52522899  0.05497135  0.19126479    -0.71300
O464        O  0.53589027  0.08076799  0.14275117    -0.71500
O465        O  0.55774587  0.06842086  0.17331219    -0.71300
O466        O  0.50361093  0.06702210  0.16049251    -0.71400
O467        O  0.50013941  0.09663144  0.17181100    -0.71300
O468        O  0.55321009  0.09525071  0.18991713    -0.71300
O469        O  0.53489118  0.10887415  0.15775777    -0.71300
O470        O  0.51871302  0.08315512  0.20465559    -0.71500
V471        V  0.53054976  0.06830329  0.16726551     1.35200
V472        V  0.52673082  0.09544272  0.18082856     1.35200
C473        C  0.52004548  0.06470460  0.20621161     0.78000
C474        C  0.53759210  0.09926173  0.14213908     0.78000
C475        C  0.56467926  0.08188602  0.18399420     0.77900
C476        C  0.49294020  0.08194479  0.16297313     0.77900
O477        O  0.52876559  0.19497494  0.98894442    -0.71300
O478        O  0.56245284  0.15163429  0.97651580    -0.71500
O479        O  0.54201747  0.16265671  0.00826588    -0.71300
O480        O  0.54890748  0.18305575  0.95720339    -0.71400
O481        O  0.57516585  0.19843571  0.96669204    -0.71300
O482        O  0.56596415  0.18058401  0.01924770    -0.71300
O483        O  0.58704768  0.16777757  0.98880696    -0.71300
O484        O  0.55446921  0.21184242  0.99731367    -0.71500
V485        V  0.54595236  0.17343552  0.98300770     1.35200
V486        V  0.57014040  0.18939942  0.99283384     1.35200
C487        C  0.53619312  0.21112166  0.99449729     0.78000
C488        C  0.58049377  0.15236277  0.98097284     0.78000
C489        C  0.55297712  0.16762920  0.02234016     0.77900
C490        C  0.56343810  0.19369709  0.95303940     0.77900
O491        O  0.68674316  0.00603910  0.98324079    -0.71300
O492        O  0.63808513  0.00270257  0.95554250    -0.71500
O493        O  0.66639655  0.97695670  0.96589420    -0.71300
O494        O  0.65812403  0.03152325  0.97316644    -0.71400
O495        O  0.67036956  0.03715721  0.94426642    -0.71300
O496        O  0.68402878  0.98295483  0.94002390    -0.71300
O497        O  0.65386785  0.00545713  0.92798517    -0.71300
O498        O  0.70126430  0.01440762  0.95613007    -0.71500
V499        V  0.66265947  0.00439905  0.96897340     1.35200
V500        V  0.67717140  0.00997367  0.94264380     1.35200
C501        C  0.70233954  0.01079520  0.97430875     0.78000
C502        C  0.63781515  0.00318144  0.93695726     0.78000
C503        C  0.67697993  0.97066077  0.95204291     0.77900
C504        C  0.66157331  0.04341423  0.95940167     0.77900
O505        O  0.98707580  0.19264158  0.03097183    -0.71300
O506        O  0.95888460  0.14484611  0.03949156    -0.71500
O507        O  0.97730227  0.16062457  0.00914191    -0.71300
O508        O  0.96840194  0.17592778  0.06180986    -0.71400
O509        O  0.94171107  0.19101705  0.05306269    -0.71300
O510        O  0.95008665  0.17456154  0.00008398    -0.71300
O511        O  0.93172436  0.15958409  0.03159674    -0.71300
O512        O  0.95996925  0.20665709  0.02179584    -0.71500
V513        V  0.97245536  0.16892057  0.03516120     1.35200
V514        V  0.94645847  0.18275760  0.02673731     1.35200
C515        C  0.97815915  0.20793791  0.02521996     0.78000
C516        C  0.94050572  0.14416099  0.03694229     0.78000
C517        C  0.96465085  0.16376256  0.99598676     0.77900
C518        C  0.95337132  0.18567954  0.06651796     0.77900
O519        O  0.84046534  0.99419506  0.03165748    -0.71300
O520        O  0.88441475  0.97994349  0.06390593    -0.71500
O521        O  0.85193729  0.96191297  0.05158806    -0.71300
O522        O  0.87391339  0.01218250  0.04381172    -0.71400
O523        O  0.85674518  0.02382742  0.06801308    -0.71300
O524        O  0.83821008  0.97190037  0.07857479    -0.71300
O525        O  0.86976986  0.99308815  0.08897777    -0.71300
O526        O  0.82465561  0.00270473  0.05797400    -0.71500
V527        V  0.86234167  0.98734451  0.04815021     1.35200
V528        V  0.84758566  0.99771616  0.07285697     1.35200
C529        C  0.82472697  0.00018417  0.03962656     0.78000
C530        C  0.88449974  0.98432011  0.08198850     0.78000
C531        C  0.84221061  0.95804782  0.06684017     0.77900
C532        C  0.86933647  0.02650338  0.05459874     0.77900
O533        O  0.02852011  0.99081893  0.18775439    -0.71300
O534        O  0.03888541  0.96338859  0.13997316    -0.71500
O535        O  0.00668389  0.97822396  0.15729106    -0.71300
O536        O  0.06071103  0.97628730  0.17008210    -0.71400
O537        O  0.05579189  0.94999948  0.18747326    -0.71300
O538        O  0.00274594  0.94903833  0.16955407    -0.71300
O539        O  0.03724479  0.93576298  0.15581216    -0.71300
O540        O  0.02163095  0.96308472  0.20188932    -0.71500
V541        V  0.03359540  0.97668818  0.16408592     1.35200
V542        V  0.02934561  0.95000755  0.17844492     1.35200
C543        C  0.02329904  0.98152985  0.20299763     0.78000
C544        C  0.04038651  0.94485164  0.13996262     0.78000
C545        C  0.99576189  0.96359608  0.16033596     0.77900
C546        C  0.06741215  0.96300677  0.18112629     0.77900
O547        O  0.03357600  0.84580088  0.98850821    -0.61700
O548        O  0.06388882  0.89132991  0.97640770    -0.71500
O549        O  0.05229087  0.85943111  0.95661747    -0.71300
O550        O  0.04510513  0.87846322  0.00813545    -0.71400
O551        O  0.07060754  0.86219299  0.01821538    -0.71300
O552        O  0.07945277  0.84515083  0.96525890    -0.71300
O553        O  0.09004093  0.87652759  0.98707089    -0.71300
O554        O  0.06034414  0.83036606  0.99635294    -0.71500
V555        V  0.04918419  0.86837846  0.98265433     1.35200
V556        V  0.07458213  0.85379746  0.99160100     1.35200
C557        C  0.04200136  0.83007714  0.99377560     0.78000
C558        C  0.08211097  0.89170956  0.97998446     0.78000
C559        C  0.06721307  0.84953192  0.95194091     0.77900
C560        C  0.05687623  0.87423697  0.02178234     0.77900
O561        O  0.18502709  0.03904245  0.98533894    -0.71300
O562        O  0.13788289  0.04979914  0.95707256    -0.71500
O563        O  0.15358505  0.01782616  0.97329868    -0.71300
O564        O  0.16890784  0.07112917  0.96915249    -0.71400
O565        O  0.18496258  0.06453474  0.94240551    -0.71300
O566        O  0.16748297  0.01152534  0.94528615    -0.71300
O567        O  0.15327926  0.04491143  0.92959128    -0.71300
O568        O  0.19961534  0.03172414  0.95796588    -0.71500
V569        V  0.16169529  0.04428930  0.97071811     1.35200
V570        V  0.17606977  0.03819181  0.94437181     1.35200
C571        C  0.20052834  0.03413866  0.97634436     0.78000
C572        C  0.13763348  0.04935607  0.93850109     0.78000
C573        C  0.15708532  0.00588841  0.95959856     0.77900
C574        C  0.17961537  0.07688188  0.95516663     0.77900
O575        O  0.98848059  0.03977605  0.83480000    -0.71300
O576        O  0.97604915  0.06896320  0.88096085    -0.71500
O577        O  0.95614261  0.05765687  0.84888472    -0.71300
O578        O  0.00801608  0.05110701  0.86757725    -0.71400
O579        O  0.01704871  0.07799843  0.85302252    -0.71300
O580        O  0.96465337  0.08449003  0.83389999    -0.71300
O581        O  0.98422840  0.09594038  0.86603039    -0.71300
O582        O  0.99702275  0.06687803  0.82033538    -0.71500
V583        V  0.98237109  0.05485821  0.85768050     1.35200
V584        V  0.99066049  0.08076208  0.84356795     1.35200
C585        C  0.99438190  0.04855542  0.81951427     0.78000
C586        C  0.97803673  0.08742509  0.88127081     0.78000
C587        C  0.95143798  0.07229162  0.83854657     0.77900
C588        C  0.02112416  0.06375576  0.86429656     0.77900
O589        O  0.02504865  0.03868197  0.34113348    -0.71300
O590        O  0.03596814  0.07003529  0.38634349    -0.71500
O591        O  0.00539217  0.04833896  0.37440729    -0.71300
O592        O  0.05557658  0.06042318  0.35391117    -0.71400
O593        O  0.04399577  0.08712865  0.34087119    -0.71300
O594        O  0.99257207  0.07231239  0.35773304    -0.71300
O595        O  0.02138706  0.09475390  0.37241769    -0.71300
O596        O  0.01515920  0.06484474  0.32582691    -0.71500
V597        V  0.03019076  0.05478254  0.36360439     1.35200
V598        V  0.01846469  0.07925001  0.34943658     1.35200
C599        C  0.01901306  0.04671247  0.32546643     0.78000
C600        C  0.03027147  0.08769464  0.38708540     0.78000
C601        C  0.99048869  0.05836625  0.36985438     0.77900
C602        C  0.05855763  0.07621842  0.34470780     0.77900
O603        O  0.82132519  0.03801786  0.48290366    -0.71300
O604        O  0.87003000  0.04272234  0.45589099    -0.71500
O605        O  0.84147209  0.06784310  0.46674865    -0.71300
O606        O  0.85006831  0.01323659  0.47226730    -0.71400
O607        O  0.83833238  0.00847352  0.44299312    -0.71300
O608        O  0.82387344  0.06257336  0.44068275    -0.71300
O609        O  0.85441964  0.04100526  0.42813612    -0.71300
O610        O  0.80695807  0.03025247  0.45551834    -0.71500
V611        V  0.84539054  0.04038450  0.46896028     1.35200
V612        V  0.83108916  0.03558584  0.44235885     1.35200
C613        C  0.80586287  0.03318808  0.47381682     0.78000
C614        C  0.87039927  0.04298507  0.43732347     0.78000
C615        C  0.83089885  0.07450961  0.45305266     0.77900
C616        C  0.84697899  0.00181525  0.45804574     0.77900
O617        O  0.97443968  0.84554634  0.48860246    -0.71300
O618        O  0.94413229  0.89015949  0.47285683    -0.71500
O619        O  0.96248254  0.87945694  0.50588364    -0.71300
O620        O  0.95640938  0.85699377  0.45582967    -0.71400
O621        O  0.92814897  0.84496625  0.46441260    -0.71300
O622        O  0.93799384  0.86222024  0.51684011    -0.71300
O623        O  0.91847708  0.87657795  0.48605429    -0.71300
O624        O  0.94733358  0.83011122  0.49517431    -0.71500
V625        V  0.95894614  0.86774529  0.48105793     1.35200
V626        V  0.93348843  0.85369598  0.49049622     1.35200
C627        C  0.96573471  0.82977434  0.49327136     0.78000
C628        C  0.92613498  0.89103174  0.47740135     0.78000
C629        C  0.95120666  0.87493990  0.51983478     0.77900
C630        C  0.94103788  0.84778497  0.45133717     0.77900
O631        O  0.02442173  0.19428922  0.53381587    -0.71300
O632        O  0.05000228  0.14525317  0.54253363    -0.71500
O633        O  0.03991948  0.17599661  0.56545246    -0.71300
O634        O  0.03442033  0.16330649  0.51148583    -0.71400
O635        O  0.06420774  0.17337569  0.50619964    -0.71300
O636        O  0.06622209  0.19269054  0.55870122    -0.71300
O637        O  0.07821573  0.15992992  0.54025611    -0.71300
O638        O  0.05227266  0.20680378  0.52467632    -0.71500
V639        V  0.03766801  0.17000995  0.53826684     1.35200
V640        V  0.06470077  0.18303003  0.53252205     1.35200
C641        C  0.03401853  0.20882781  0.52733769     0.78000
C642        C  0.06854234  0.14436865  0.54297164     0.78000
C643        C  0.05378063  0.18688625  0.57120799     0.77900
C644        C  0.04886196  0.16493420  0.50001520     0.77900
O645        O  0.17115489  0.99521493  0.52911079    -0.71300
O646        O  0.12517415  0.98091296  0.55783828    -0.71500
O647        O  0.13768620  0.01349508  0.54021948    -0.71300
O648        O  0.15803564  0.96229436  0.54665343    -0.71400
O649        O  0.17277638  0.97129572  0.57347256    -0.71300
O650        O  0.15149000  0.02265915  0.56746877    -0.71300
O651        O  0.13969909  0.98915504  0.58500418    -0.71300
O652        O  0.18499714  0.00437570  0.55632389    -0.71500
V653        V  0.14835507  0.98817680  0.54394950     1.35200
V654        V  0.16196999  0.99677498  0.57001788     1.35200
C655        C  0.18607326  0.00189293  0.53798552     0.78000
C656        C  0.12471834  0.98252617  0.57634228     0.78000
C657        C  0.14052839  0.02658672  0.55297286     0.77900
C658        C  0.16869757  0.95802352  0.56116925     0.77900
O659        O  0.98197066  0.99033267  0.68454589    -0.71300
O660        O  0.96460953  0.96308584  0.63901086    -0.71500
O661        O  0.94781472  0.97503556  0.67258617    -0.71300
O662        O  0.99844032  0.97837462  0.65045168    -0.71400
O663        O  0.00673586  0.95090982  0.66441223    -0.71300
O664        O  0.95517528  0.94716194  0.68623988    -0.71300
O665        O  0.97227274  0.93533102  0.65276687    -0.71300
O666        O  0.98940354  0.96254515  0.69831966    -0.71500
V667        V  0.97338357  0.97618428  0.66201178     1.35200
V668        V  0.98081403  0.94953039  0.67520622     1.35200
C669        C  0.98821801  0.98102138  0.69935942     0.78000
C670        C  0.96571824  0.94459541  0.63809712     0.78000
C671        C  0.94270256  0.96050325  0.68285941     0.77900
C672        C  0.01094850  0.96499002  0.65301174     0.77900
O673        O  0.72971034  0.60496865  0.78711566    -0.71300
O674        O  0.71530202  0.64980352  0.81810745    -0.71500
O675        O  0.74774225  0.63869586  0.79872883    -0.71300
O676        O  0.69732209  0.61707245  0.80609977    -0.71400
O677        O  0.70683614  0.60390441  0.83355935    -0.71300
O678        O  0.75905220  0.62197326  0.82342121    -0.71300
O679        O  0.72815899  0.63568540  0.84365108    -0.71300
O680        O  0.73764260  0.58973835  0.81397912    -0.71500
V681        V  0.72281537  0.62732606  0.80293830     1.35200
V682        V  0.73277292  0.61308156  0.82813248     1.35200
C683        C  0.73512945  0.58929981  0.79564926     0.78000
C684        C  0.71958159  0.65031881  0.83621806     0.78000
C685        C  0.76190734  0.63435749  0.80982722     0.77900
C686        C  0.69327510  0.60735752  0.82129105     0.77900
O687        O  0.92936328  0.74894501  0.78022339    -0.71300
O688        O  0.88113099  0.72199198  0.79005567    -0.71500
O689        O  0.91220255  0.73270953  0.81189967    -0.71300
O690        O  0.89807405  0.73856409  0.75868914    -0.71400
O691        O  0.90926269  0.70938014  0.75232832    -0.71300
O692        O  0.92880051  0.70644463  0.80467377    -0.71300
O693        O  0.89623881  0.69418501  0.78620065    -0.71300
O694        O  0.94242765  0.72134308  0.77105233    -0.71500
V695        V  0.90547584  0.73505706  0.78509112     1.35200
V696        V  0.91896346  0.70837396  0.77861569     1.35200
C697        C  0.94413169  0.73958869  0.77390935     0.78000
C698        C  0.88066286  0.70339444  0.79016699     0.78000
C699        C  0.92319598  0.71883686  0.81730549     0.77900
C700        C  0.90027772  0.72465070  0.74672016     0.77900
O701        O  0.57985966  0.80275777  0.74371614    -0.71300
O702        O  0.62371083  0.83387664  0.72746339    -0.71500
O703        O  0.61335146  0.81565383  0.76079016    -0.71300
O704        O  0.59117723  0.82062084  0.71054215    -0.71400
O705        O  0.57764935  0.84832151  0.71872920    -0.71300
O706        O  0.59614517  0.84036522  0.77126976    -0.71300
O707        O  0.60928968  0.85966876  0.73943426    -0.71300
O708        O  0.56395606  0.82953839  0.75049891    -0.71500
V709        V  0.60169423  0.81867718  0.73590791     1.35200
V710        V  0.58701377  0.84397438  0.74488752     1.35200
C711        C  0.56403059  0.81109386  0.74886356     0.78000
C712        C  0.62386358  0.85215707  0.73084107     0.78000
C713        C  0.60868441  0.82701376  0.77459396     0.77900
C714        C  0.58153080  0.83561569  0.70571405     0.77900
O715        O  0.72271423  0.79621422  0.94146464    -0.71300
O716        O  0.69584395  0.80576032  0.89354049    -0.71500
O717        O  0.70718864  0.82800465  0.92403235    -0.71300
O718        O  0.71148478  0.77409382  0.91081566    -0.71400
O719        O  0.68231576  0.76886359  0.92255275    -0.71300
O720        O  0.68071973  0.82193884  0.94071953    -0.71300
O721        O  0.66793940  0.80292274  0.90869473    -0.71300
O722        O  0.69513307  0.78824926  0.95531206    -0.71500
V723        V  0.70878533  0.80090658  0.91777376     1.35200
V724        V  0.68205533  0.79549576  0.93161313     1.35200
C725        C  0.71350754  0.79063226  0.95657252     0.78000
C726        C  0.67730934  0.80640981  0.89308641     0.78000
C727        C  0.69339515  0.83415001  0.93478174     0.77900
C728        C  0.69727745  0.76252820  0.91350924     0.77900
O729        O  0.76963471  0.75002725  0.59232338    -0.71300
O730        O  0.80022402  0.73757601  0.63761801    -0.71500
O731        O  0.77993558  0.76897811  0.62551145    -0.71300
O732        O  0.78973417  0.71848514  0.60509843    -0.71400
O733        O  0.81679524  0.72888745  0.59180878    -0.71300
O734        O  0.80482927  0.78066131  0.60936464    -0.71300
O735        O  0.82566659  0.75065535  0.62348290    -0.71300
O736        O  0.79625968  0.75915987  0.57735202    -0.71500
V737        V  0.78532346  0.74400878  0.61480143     1.35200
V738        V  0.81037158  0.75462629  0.60073477     1.35200
C739        C  0.77799512  0.75631130  0.57694989     0.78000
C740        C  0.81810700  0.74248396  0.63824516     0.78000
C741        C  0.79076409  0.78334289  0.62118537     0.77900
C742        C  0.80519095  0.71489134  0.59561350     0.77900
O743        O  0.76987287  0.95248277  0.73366451    -0.71300
O744        O  0.77687045  0.90318632  0.70825862    -0.71500
O745        O  0.80108052  0.93187651  0.72049139    -0.71300
O746        O  0.74607609  0.92355953  0.72159614    -0.71400
O747        O  0.74394643  0.93435309  0.69163274    -0.71300
O748        O  0.79762291  0.94935386  0.69401688    -0.71300
O749        O  0.77790801  0.91831783  0.68018669    -0.71300
O750        O  0.76390492  0.96593870  0.70535730    -0.71500
V751        V  0.77345189  0.92807232  0.72053925     1.35200
V752        V  0.77084888  0.94177524  0.69332172     1.35200
C753        C  0.76528014  0.96754000  0.72377974     0.78000
C754        C  0.77899381  0.90253299  0.68982724     0.78000
C755        C  0.80863303  0.94242656  0.70724922     0.77900
C756        C  0.73590994  0.92649132  0.70639519     0.77900
O757        O  0.23667326  0.79302807  0.58906248    -0.71300
O758        O  0.20391389  0.80548534  0.63294267    -0.71500
O759        O  0.22550428  0.77429350  0.62235214    -0.71300
O760        O  0.21529453  0.82405529  0.60038614    -0.71400
O761        O  0.18865549  0.81287898  0.58686845    -0.71300
O762        O  0.20212588  0.76157411  0.60478465    -0.71300
O763        O  0.17963269  0.79074688  0.61846614    -0.71300
O764        O  0.21084558  0.78350691  0.57299650    -0.71500
V765        V  0.21993256  0.79892476  0.61086597     1.35200
V766        V  0.19578675  0.78738469  0.59604181     1.35200
C767        C  0.22905694  0.78689652  0.57322896     0.78000
C768        C  0.18623040  0.79980198  0.63322659     0.78000
C769        C  0.21560764  0.75947225  0.61739021     0.77900
C770        C  0.19998432  0.82714645  0.59050030     0.77900
O771        O  0.23915386  0.59034527  0.73006207    -0.71300
O772        O  0.23372426  0.63985123  0.70453711    -0.71500
O773        O  0.20899637  0.61093717  0.71511842    -0.71300
O774        O  0.26381012  0.61978710  0.71962473    -0.71400
O775        O  0.26788932  0.60891011  0.68994025    -0.71300
O776        O  0.21382420  0.59406375  0.68850455    -0.71300
O777        O  0.23489684  0.62502171  0.67633007    -0.71300
O778        O  0.24649317  0.57689774  0.70211831    -0.71500
V779        V  0.23651625  0.61489559  0.71685689     1.35200
V780        V  0.24080050  0.60139133  0.68977211     1.35200
C781        C  0.24361061  0.57511926  0.72038010     0.78000
C782        C  0.23301114  0.64069971  0.68600198     0.78000
C783        C  0.20209856  0.60071347  0.70127970     0.77900
C784        C  0.27485804  0.61741788  0.70494502     0.77900
O785        O  0.28565170  0.74735109  0.93554969    -0.71300
O786        O  0.31144205  0.73960127  0.88646899    -0.71500
O787        O  0.30119826  0.71640219  0.91650684    -0.71300
O788        O  0.29557233  0.77043609  0.90512408    -0.71400
O789        O  0.32504225  0.77592616  0.91593751    -0.71300
O790        O  0.32772938  0.72244776  0.93312680    -0.71300
O791        O  0.33955452  0.74226855  0.90127181    -0.71300
O792        O  0.31345973  0.75574685  0.94867106    -0.71500
V793        V  0.29897038  0.74357437  0.91122435     1.35200
V794        V  0.32592435  0.74909284  0.92455219     1.35200
C795        C  0.29520349  0.75299664  0.95046668     0.78000
C796        C  0.32999342  0.73894112  0.88575960     0.78000
C797        C  0.31518317  0.71020961  0.92694974     0.77900
C798        C  0.30968574  0.78217097  0.90744146     0.77900
O799        O  0.43102253  0.74487038  0.73821756    -0.71300
O800        O  0.38790935  0.71210735  0.72267436    -0.71500
O801        O  0.39782510  0.73125032  0.75555181    -0.71300
O802        O  0.42025487  0.72591199  0.70540312    -0.71400
O803        O  0.43479970  0.69898039  0.71440254    -0.71300
O804        O  0.41548004  0.70704520  0.76650231    -0.71300
O805        O  0.40314198  0.68694476  0.73497104    -0.71300
O806        O  0.44752647  0.71875420  0.74605371    -0.71500
V807        V  0.40961900  0.72810482  0.73073114     1.35200
V808        V  0.42498680  0.70343259  0.74032224     1.35200
C809        C  0.44695609  0.73717686  0.74405157     0.78000
C810        C  0.38812935  0.69391814  0.72659521     0.78000
C811        C  0.40245961  0.71998093  0.76946877     0.77900
C812        C  0.43061693  0.71124670  0.70106302     0.77900
O813        O  0.08167949  0.79484148  0.78047831    -0.71300
O814        O  0.13030444  0.82185690  0.78734177    -0.71500
O815        O  0.10091456  0.81064324  0.81134864    -0.71300
O816        O  0.11140453  0.80579954  0.75684819    -0.71400
O817        O  0.10038404  0.83536093  0.75215604    -0.71300
O818        O  0.08319284  0.83649037  0.80544481    -0.71300
O819        O  0.11466262  0.84960914  0.78585233    -0.71300
O820        O  0.06813415  0.82238885  0.77184849    -0.71500
V821        V  0.10577867  0.80874457  0.78393086     1.35200
V822        V  0.09177646  0.83542818  0.77886631     1.35200
C823        C  0.06665435  0.80409882  0.77461453     0.78000
C824        C  0.13058227  0.84042912  0.78813472     0.78000
C825        C  0.08995481  0.82420698  0.81764823     0.77900
C826        C  0.10891502  0.82024333  0.74551473     0.77900
O827        O  0.28336534  0.93858605  0.77741575    -0.71300
O828        O  0.29582341  0.89337881  0.80883822    -0.71500
O829        O  0.26426281  0.90535917  0.78847270    -0.71300
O830        O  0.31500518  0.92592019  0.79752898    -0.71400
O831        O  0.30473290  0.94006683  0.82418394    -0.71300
O832        O  0.25286400  0.92155073  0.81345096    -0.71300
O833        O  0.28339397  0.90808800  0.83424048    -0.71300
O834        O  0.27400369  0.95369713  0.80385063    -0.71500
V835        V  0.28936142  0.91612975  0.79351168     1.35200
V836        V  0.27896376  0.93057589  0.81841255     1.35200
C837        C  0.27711011  0.95411338  0.78559482     0.78000
C838        C  0.29126784  0.89303346  0.82687766     0.78000
C839        C  0.25000555  0.90962550  0.79949226     0.77900
C840        C  0.31864510  0.93622220  0.81246499     0.77900
O841        O  0.08322368  0.74979404  0.28244494    -0.71300
O842        O  0.13102833  0.72253309  0.29261999    -0.71500
O843        O  0.11555918  0.74032470  0.26161215    -0.71300
O844        O  0.09927742  0.73200614  0.31386746    -0.71400
O845        O  0.08444399  0.70511729  0.30530512    -0.71300
O846        O  0.10260982  0.71258142  0.25268685    -0.71300
O847        O  0.11681942  0.69495018  0.28527519    -0.71300
O848        O  0.06982835  0.72244232  0.27304421    -0.71500
V849        V  0.10690592  0.73565078  0.28744902     1.35200
V850        V  0.09364594  0.70931187  0.27917025     1.35200
C851        C  0.06832268  0.74066727  0.27613931     0.78000
C852        C  0.13196280  0.70408131  0.29084086     0.78000
C853        C  0.11280911  0.72756360  0.24852389     0.77900
C854        C  0.08922387  0.71720005  0.31858374     0.77900
O855        O  0.28129641  0.60328782  0.28676412    -0.71300
O856        O  0.29586178  0.64840828  0.31717414    -0.71500
O857        O  0.31380992  0.61566537  0.30529653    -0.71300
O858        O  0.26317253  0.63704751  0.29850041    -0.71400
O859        O  0.25261553  0.62105999  0.32399476    -0.71300
O860        O  0.30455541  0.60192668  0.33256072    -0.71300
O861        O  0.28434275  0.63399679  0.34317913    -0.71300
O862        O  0.27288552  0.58839752  0.31365523    -0.71500
V863        V  0.28824043  0.62576616  0.30235937     1.35200
V864        V  0.27874452  0.61159284  0.32779213     1.35200
C865        C  0.27545654  0.58779290  0.29532023     0.78000
C866        C  0.29238467  0.64877094  0.33543712     0.78000
C867        C  0.31800334  0.60577096  0.32034184     0.77900
C868        C  0.24943231  0.63321609  0.31029634     0.77900
O869        O  0.23890948  0.75077128  0.08907395    -0.71300
O870        O  0.20793880  0.74128555  0.13480888    -0.71500
O871        O  0.21905497  0.71983091  0.10366782    -0.71300
O872        O  0.22776590  0.77195314  0.12098895    -0.71400
O873        O  0.20149277  0.78175247  0.10582551    -0.71300
O874        O  0.19344960  0.72932480  0.08720695    -0.71300
O875        O  0.18175464  0.74989116  0.11875815    -0.71300
O876        O  0.21278242  0.76077107  0.07379188    -0.71500
V877        V  0.22295223  0.74617942  0.11175332     1.35200
V878        V  0.19790568  0.75533359  0.09668177     1.35200
C879        C  0.23091489  0.75695747  0.07345295     0.78000
C880        C  0.18955444  0.74387308  0.13445302     0.78000
C881        C  0.20480228  0.71562625  0.09260995     0.77900
C882        C  0.21576919  0.78554073  0.11715741     0.77900
O883        O  0.28881300  0.79461675  0.43890777    -0.71300
O884        O  0.31386138  0.80511673  0.38997164    -0.71500
O885        O  0.30003591  0.77301968  0.40780949    -0.71300
O886        O  0.30260036  0.82711106  0.42080219    -0.71400
O887        O  0.33003290  0.82207591  0.43627102    -0.71300
O888        O  0.32951738  0.76890582  0.41929376    -0.71300
O889        O  0.34223193  0.80283380  0.40435977    -0.71300
O890        O  0.31721198  0.78837933  0.45200521    -0.71500
V891        V  0.30182103  0.79989977  0.41470161     1.35200
V892        V  0.32915962  0.79555580  0.42779210     1.35200
C893        C  0.29878928  0.78963837  0.45377322     0.78000
C894        C  0.33238472  0.80594409  0.38898114     0.78000
C895        C  0.31478580  0.76210402  0.41029187     0.77900
C896        C  0.31677510  0.83379783  0.43072282     0.77900
O897        O  0.43221234  0.80146684  0.23863439    -0.71300
O898        O  0.38694124  0.83209140  0.22554931    -0.71500
O899        O  0.41931258  0.82053402  0.20679716    -0.71300
O900        O  0.39897967  0.81261050  0.25745268    -0.71400
O901        O  0.41592828  0.83720941  0.26858228    -0.71300
O902        O  0.43219857  0.84826891  0.21578750    -0.71300
O903        O  0.40104810  0.85760127  0.23846403    -0.71300
O904        O  0.44766304  0.82831847  0.24611170    -0.71500
V905        V  0.40969837  0.81712644  0.23237763     1.35200
V906        V  0.42399606  0.84235530  0.24209254     1.35200
C907        C  0.44799278  0.80996405  0.24365285     0.78000
C908        C  0.38625619  0.85005180  0.23028545     0.78000
C909        C  0.42845417  0.83595064  0.20233915     0.77900
C910        C  0.40363820  0.82355201  0.27159139     0.77900
O911        O  0.23905330  0.95450018  0.23156138    -0.71300
O912        O  0.23291873  0.90563775  0.20499123    -0.71500
O913        O  0.26307407  0.92486570  0.22127891    -0.71300
O914        O  0.20883555  0.93510219  0.21554406    -0.71400
O915        O  0.21475872  0.95228723  0.18932864    -0.71300
O916        O  0.26824956  0.93598671  0.19183470    -0.71300
O917        O  0.23503280  0.92082633  0.17703670    -0.71300
O918        O  0.24754934  0.96829103  0.20411031    -0.71500
V919        V  0.23608901  0.93032927  0.21783947     1.35200
V920        V  0.24140936  0.94415809  0.19109691     1.35200
C921        C  0.24428917  0.96977130  0.22235624     0.78000
C922        C  0.23236890  0.90503755  0.18642141     0.78000
C923        C  0.27462743  0.92743050  0.20706497     0.77900
C924        C  0.20259904  0.94579431  0.20175414     0.77900
O925        O  0.58903949  0.25472389  0.78353314    -0.71300
O926        O  0.63547511  0.22656660  0.79727897    -0.71500
O927        O  0.62209710  0.24339153  0.76477937    -0.71300
O928        O  0.60302231  0.23784668  0.81649630    -0.71400
O929        O  0.58772553  0.21112894  0.80819914    -0.71300
O930        O  0.60872857  0.21566556  0.75643079    -0.71300
O931        O  0.62070025  0.19917539  0.79034710    -0.71300
O932        O  0.57530347  0.22740951  0.77453041    -0.71500
V933        V  0.61202772  0.24014899  0.79033182     1.35200
V934        V  0.59834986  0.21389428  0.78247216     1.35200
C935        C  0.57419175  0.24577052  0.77682425     0.78000
C936        C  0.63587008  0.20803631  0.79626245     0.78000
C937        C  0.61961936  0.23009590  0.75215791     0.77900
C938        C  0.59234223  0.22349456  0.82125707     0.77900
O939        O  0.73735094  0.45201055  0.73774183    -0.71300
O940        O  0.72942379  0.40507097  0.70829202    -0.71500
O941        O  0.75955311  0.42065958  0.72718382    -0.71300
O942        O  0.70696571  0.43555766  0.71899721    -0.71400
O943        O  0.71512231  0.45203715  0.69294088    -0.71300
O944        O  0.76828216  0.43500271  0.70006286    -0.71300
O945        O  0.73640541  0.42079447  0.68142915    -0.71300
O946        O  0.74674362  0.46680098  0.71110913    -0.71500
V947        V  0.73351317  0.42871958  0.72256132     1.35200
V948        V  0.74155755  0.44342016  0.69691601     1.35200
C949        C  0.74302240  0.46755573  0.72925307     0.78000
C950        C  0.73156346  0.40501647  0.68984528     0.78000
C951        C  0.77260605  0.42417485  0.71458882     0.77900
C952        C  0.70198419  0.44625186  0.70475687     0.77900
O953        O  0.74170956  0.25330240  0.59057325    -0.71300
O954        O  0.71254192  0.24153561  0.63666011    -0.71500
O955        O  0.72308817  0.22151010  0.60468692    -0.71300
O956        O  0.73114917  0.27313863  0.62310991    -0.71400
O957        O  0.70463182  0.28291821  0.60831121    -0.71300
O958        O  0.69627701  0.23068575  0.59002773    -0.71300
O959        O  0.68574742  0.25068450  0.62193701    -0.71300
O960        O  0.71481805  0.26240019  0.57602484    -0.71500
V961        V  0.72663858  0.24759712  0.61339628     1.35200
V962        V  0.70091209  0.25658465  0.59934384     1.35200
C963        C  0.73308518  0.25945026  0.57532379     0.78000
C964        C  0.69414787  0.24383543  0.63696758     0.78000
C965        C  0.70809319  0.21717159  0.59474080     0.77900
C966        C  0.71915949  0.28669863  0.61926424     0.77900
O967        O  0.77991240  0.10241397  0.78376202    -0.71300
O968        O  0.79831981  0.14498620  0.81555684    -0.71500
O969        O  0.81392688  0.11178013  0.80155597    -0.71300
O970        O  0.76454227  0.13649828  0.79770221    -0.71400
O971        O  0.75372316  0.11954577  0.82245413    -0.71300
O972        O  0.80511761  0.09781529  0.82884387    -0.71300
O973        O  0.78629846  0.13037536  0.84122972    -0.71300
O974        O  0.77223552  0.08657626  0.81034313    -0.71500
V975        V  0.78892987  0.12354798  0.80006553     1.35200
V976        V  0.77952266  0.10879970  0.82518808     1.35200
C977        C  0.77356657  0.08690916  0.79188308     0.78000
C978        C  0.79473755  0.14507673  0.83379452     0.78000
C979        C  0.81827636  0.10131420  0.81617552     0.77900
C980        C  0.75092464  0.13273860  0.80965001     0.77900
O981        O  0.93461492  0.30155945  0.73935639    -0.71300
O982        O  0.88907655  0.33196050  0.72763676    -0.71500
O983        O  0.92065020  0.31996830  0.70722618    -0.71300
O984        O  0.90251860  0.31366627  0.75910475    -0.71400
O985        O  0.91777862  0.34015388  0.76819420    -0.71300
O986        O  0.93640303  0.34637370  0.71565884    -0.71300
O987        O  0.90466391  0.35853427  0.73583492    -0.71300
O988        O  0.94993591  0.32818034  0.74786960    -0.71500
V989        V  0.91212390  0.31727825  0.73349343     1.35200
V990        V  0.92696396  0.34277036  0.74176560     1.35200
C991        C  0.95013034  0.30979674  0.74540074     0.78000
C992        C  0.88904603  0.35037080  0.73007952     0.78000
C993        C  0.93133615  0.33431351  0.70247543     0.77900
C994        C  0.90614430  0.32621919  0.77216926     0.77900
O995        O  0.79040667  0.29278095  0.93708865    -0.71300
O996        O  0.81626816  0.30179195  0.88843996    -0.71500
O997        O  0.80120590  0.27021974  0.90636256    -0.71300
O998        O  0.80534452  0.32420410  0.91885569    -0.71400
O999        O  0.83175686  0.31830447  0.93575301    -0.71300
O1000       O  0.83091012  0.26563609  0.91705044    -0.71300
O1001       O  0.84436303  0.29995597  0.90343369    -0.71300
O1002       O  0.81828945  0.28453650  0.95019719    -0.71500
V1003       V  0.80378421  0.29710201  0.91297526     1.35200
V1004       V  0.83079846  0.29205476  0.92639548     1.35200
C1005       C  0.80005612  0.28746998  0.95203577     0.78000
C1006       C  0.83476666  0.30319046  0.88792186     0.78000
C1007       C  0.81587216  0.25909173  0.90833393     0.77900
C1008       C  0.81898423  0.33035981  0.92978542     0.77900
O1009       O  0.27434948  0.09181787  0.73085147    -0.71300
O1010       O  0.28251133  0.14143249  0.70605062    -0.71500
O1011       O  0.25120082  0.12213654  0.72039655    -0.71300
O1012       O  0.30549136  0.11145170  0.71691624    -0.71400
O1013       O  0.30068067  0.09533683  0.68981334    -0.71300
O1014       O  0.24711172  0.11171628  0.69054063    -0.71300
O1015       O  0.28109797  0.12709208  0.67761622    -0.71300
O1016       O  0.26729806  0.07906252  0.70250406    -0.71500
V1017       V  0.27825444  0.11643681  0.71804195     1.35200
V1018       V  0.27400189  0.10350506  0.69065823     1.35200
C1019       C  0.26966068  0.07690393  0.72079510     0.78000
C1020       C  0.28396292  0.14246887  0.68753678     0.78000
C1021       C  0.24011163  0.11977134  0.70577286     0.77900
C1022       C  0.31229083  0.10135297  0.70298667     0.77900
O1023       O  0.08248658  0.24363126  0.74100398    -0.71300
O1024       O  0.12571893  0.21157474  0.72486332    -0.71500
O1025       O  0.09240150  0.22418160  0.70827860    -0.71300
O1026       O  0.11647746  0.23142499  0.75757765    -0.71400
O1027       O  0.09948757  0.20740247  0.76983764    -0.71300
O1028       O  0.07926060  0.19692585  0.71830392    -0.71300
O1029       O  0.11173393  0.18653213  0.73878396    -0.71300
O1030       O  0.06668610  0.21733020  0.74962941    -0.71500
V1031       V  0.10395416  0.22725292  0.73320397     1.35200
V1032       V  0.08954067  0.20251499  0.74395080     1.35200
C1033       C  0.06685936  0.23570386  0.74726720     0.78000
C1034       C  0.12620052  0.19360890  0.72963275     0.78000
C1035       C  0.08229919  0.20915309  0.70457873     0.77900
C1036       C  0.11220994  0.22079149  0.77211065     0.77900
O1037       O  0.27803114  0.29506526  0.59119596    -0.71300
O1038       O  0.31152544  0.30695752  0.63478541    -0.71500
O1039       O  0.29831658  0.32654373  0.60361388    -0.71300
O1040       O  0.29108454  0.27531161  0.62344123    -0.71400
O1041       O  0.31518834  0.26451140  0.60559982    -0.71300
O1042       O  0.32437913  0.31704447  0.58789454    -0.71300
O1043       O  0.33624339  0.29501553  0.61855923    -0.71300
O1044       O  0.30371485  0.28637932  0.57445850    -0.71500
V1045       V  0.29514199  0.30067262  0.61288124     1.35200
V1046       V  0.31935847  0.29091056  0.59689670     1.35200
C1047       C  0.28547813  0.28945811  0.57507794     0.78000
C1048       C  0.32960572  0.30274506  0.63400088     0.78000
C1049       C  0.31289587  0.33073737  0.59306861     0.77900
C1050       C  0.30209085  0.26130548  0.61839787     0.77900
O1051       O  0.43591550  0.29858554  0.77927340    -0.71300
O1052       O  0.38670424  0.32461105  0.78608871    -0.71500
O1053       O  0.40618339  0.30899005  0.75567886    -0.71300
O1054       O  0.41627891  0.31397325  0.81010015    -0.71400
O1055       O  0.43310686  0.34049062  0.80461989    -0.71300
O1056       O  0.41720793  0.33852977  0.75089372    -0.71300
O1057       O  0.40159023  0.35271688  0.78406776    -0.71300
O1058       O  0.44923882  0.32648640  0.77150701    -0.71500
V1059       V  0.41157145  0.31204643  0.78272674     1.35200
V1060       V  0.42508781  0.33902707  0.77782187     1.35200
C1061       C  0.45089663  0.30814832  0.77383830     0.78000
C1062       C  0.38587445  0.34318167  0.78651121     0.78000
C1063       C  0.40893549  0.32327641  0.74423978     0.77900
C1064       C  0.42671762  0.32782086  0.81661881     0.77900
O1065       O  0.23107661  0.43784395  0.78096760    -0.71300
O1066       O  0.21840637  0.39438111  0.81457988    -0.71500
O1067       O  0.19980407  0.42666270  0.80244003    -0.71300
O1068       O  0.24983338  0.40447147  0.79301623    -0.71400
O1069       O  0.26230783  0.42200745  0.81652143    -0.71300
O1070       O  0.21082577  0.44114963  0.82861002    -0.71300
O1071       O  0.23240229  0.40954707  0.83887860    -0.71300
O1072       O  0.24079005  0.45402069  0.80663538    -0.71500
V1073       V  0.22509287  0.41618224  0.79814681     1.35200
V1074       V  0.23640531  0.43141083  0.82214616     1.35200
C1075       C  0.23720163  0.45376740  0.78846035     0.78000
C1076       C  0.22352930  0.39461870  0.83245740     0.78000
C1077       C  0.19654360  0.43701401  0.81743090     0.77900
C1078       C  0.26453960  0.40913805  0.80327435     0.77900
O1079       O  0.22795451  0.24880857  0.93872812    -0.71300
O1080       O  0.20076358  0.24040293  0.89051440    -0.71500
O1081       O  0.21687877  0.27153239  0.90836186    -0.71300
O1082       O  0.21202563  0.21742896  0.92071947    -0.71400
O1083       O  0.18623028  0.22390084  0.93829792    -0.71300
O1084       O  0.18740513  0.27657829  0.91941900    -0.71300
O1085       O  0.17307564  0.24245678  0.90617734    -0.71300
O1086       O  0.20048875  0.25777137  0.95220040    -0.71500
V1087       V  0.21393684  0.24463240  0.91486489     1.35200
V1088       V  0.18732448  0.25014618  0.92881690     1.35200
C1089       C  0.21877429  0.25498384  0.95364510     0.78000
C1090       C  0.18220922  0.23953320  0.89033097     0.78000
C1091       C  0.20249233  0.28297003  0.91066465     0.77900
C1092       C  0.19856983  0.21153134  0.93202853     0.77900
O1093       O  0.27714000  0.25263751  0.09010448    -0.71300
O1094       O  0.30741015  0.23936707  0.13554978    -0.71500
O1095       O  0.28761257  0.27113990  0.12368295    -0.71300
O1096       O  0.29663573  0.22082990  0.10276173    -0.71400
O1097       O  0.32411802  0.23080331  0.09002000    -0.71300
O1098       O  0.31242890  0.28280501  0.10740934    -0.71300
O1099       O  0.33291145  0.25265805  0.12176839    -0.71300
O1100       O  0.30402734  0.26110239  0.07522227    -0.71500
V1101       V  0.29262980  0.24626537  0.11269779     1.35200
V1102       V  0.31785678  0.25666067  0.09883252     1.35200
C1103       C  0.28575056  0.25831978  0.07461563     0.78000
C1104       C  0.32531067  0.24426774  0.13640402     0.78000
C1105       C  0.29855092  0.28544067  0.11948125     0.77900
C1106       C  0.31214166  0.21701793  0.09348483     0.77900
O1107       O  0.27313048  0.44958031  0.23936853    -0.71300
O1108       O  0.28019793  0.40106077  0.21206294    -0.71500
O1109       O  0.30397665  0.43017983  0.22386761    -0.71300
O1110       O  0.24943483  0.41962029  0.22766584    -0.71400
O1111       O  0.24516161  0.43162179  0.19841886    -0.71300
O1112       O  0.29872441  0.44783771  0.19782066    -0.71300
O1113       O  0.27867620  0.41687612  0.18439887    -0.71300
O1114       O  0.26566326  0.46361003  0.21172697    -0.71500
V1115       V  0.27655933  0.42546831  0.22530390     1.35200
V1116       V  0.27201736  0.43978725  0.19865805     1.35200
C1117       C  0.26848787  0.46499665  0.23001636     0.78000
C1118       C  0.28113853  0.40094259  0.19350050     0.78000
C1119       C  0.31060935  0.44093246  0.21031478     0.77900
C1120       C  0.23841371  0.42228733  0.21301253     0.77900
O1121       O  0.22576205  0.10736514  0.28086487    -0.71300
O1122       O  0.21334611  0.15175335  0.31332056    -0.71500
O1123       O  0.24507674  0.14016722  0.29279451    -0.71300
O1124       O  0.19398314  0.11978006  0.30137939    -0.71400
O1125       O  0.20403425  0.10620468  0.32843723    -0.71300
O1126       O  0.25645735  0.12201132  0.31640748    -0.71300
O1127       O  0.22709203  0.13692423  0.33798150    -0.71300
O1128       O  0.23348913  0.09103734  0.30712336    -0.71500
V1129       V  0.21979001  0.12942754  0.29747778     1.35200
V1130       V  0.23006975  0.11430704  0.32198923     1.35200
C1131       C  0.23112949  0.09134117  0.28874209     0.78000
C1132       C  0.21859104  0.15192546  0.33116453     0.78000
C1133       C  0.25947425  0.13462818  0.30309215     0.77900
C1134       C  0.19010362  0.11029036  0.31681578     0.77900
O1135       O  0.43320454  0.24192222  0.28172788    -0.71300
O1136       O  0.38299809  0.21735628  0.28645085    -0.71500
O1137       O  0.41229776  0.22590017  0.31140301    -0.71300
O1138       O  0.40346418  0.23347390  0.25701848    -0.71400
O1139       O  0.41325700  0.20363300  0.25143049    -0.71300
O1140       O  0.42867918  0.19930785  0.30491970    -0.71300
O1141       O  0.39703136  0.18883714  0.28399457    -0.71300
O1142       O  0.44568160  0.21400689  0.27273137    -0.71500
V1143       V  0.40829496  0.22919208  0.28403963     1.35200
V1144       V  0.42099986  0.20199543  0.27828239     1.35200
C1145       C  0.44803279  0.23208055  0.27631885     0.78000
C1146       C  0.38161111  0.19881399  0.28655983     0.78000
C1147       C  0.42226321  0.21146266  0.31737349     0.77900
C1148       C  0.40542546  0.21930956  0.24527044     0.77900
O1149       O  0.08050507  0.29560803  0.24201581    -0.71300
O1150       O  0.12503686  0.32652504  0.22724448    -0.71500
O1151       O  0.11353429  0.30855260  0.26017542    -0.71300
O1152       O  0.09265529  0.31350468  0.20909365    -0.71400
O1153       O  0.07819806  0.34067548  0.21743430    -0.71300
O1154       O  0.09699288  0.33402918  0.26986576    -0.71300
O1155       O  0.11000093  0.35260264  0.23771824    -0.71300
O1156       O  0.06479061  0.32229820  0.24952016    -0.71500
V1157       V  0.10258017  0.31150219  0.23488454     1.35200
V1158       V  0.08775376  0.33686671  0.24350056     1.35200
C1159       C  0.06475562  0.30387732  0.24747946     0.78000
C1160       C  0.12511836  0.34486646  0.23028853     0.78000
C1161       C  0.10933861  0.32064160  0.27355432     0.77900
C1162       C  0.08232584  0.32812084  0.20437909     0.77900
O1163       O  0.22388357  0.29547791  0.44065426    -0.71300
O1164       O  0.19643016  0.30477253  0.39287940    -0.71500
O1165       O  0.20806786  0.32703036  0.42316791    -0.71300
O1166       O  0.21244606  0.27326222  0.41006753    -0.71400
O1167       O  0.18310381  0.26809867  0.42139325    -0.71300
O1168       O  0.18219368  0.32071756  0.44070513    -0.71300
O1169       O  0.16874525  0.30253064  0.40852772    -0.71300
O1170       O  0.19643765  0.28687210  0.45440667    -0.71500
V1171       V  0.20971350  0.30001166  0.41698780     1.35200
V1172       V  0.18313659  0.29452829  0.43104871     1.35200
C1173       C  0.21473162  0.28972735  0.45574500     0.78000
C1174       C  0.17789738  0.30584807  0.39276427     0.78000
C1175       C  0.19467656  0.33296508  0.43449069     0.77900
C1176       C  0.19808089  0.26181791  0.41232082     0.77900
O1177       O  0.74298132  0.29679856  0.08980577    -0.71300
O1178       O  0.71364136  0.30290228  0.13713494    -0.71500
O1179       O  0.73349504  0.27356734  0.12074342    -0.71300
O1180       O  0.72297154  0.32641430  0.10671213    -0.71400
O1181       O  0.69730534  0.31695767  0.09032435    -0.71300
O1182       O  0.70654405  0.26422948  0.10649811    -0.71300
O1183       O  0.68700839  0.29516620  0.12137840    -0.71300
O1184       O  0.71662354  0.28652557  0.07511309    -0.71500
V1185       V  0.72781811  0.29973231  0.11324241     1.35200
V1186       V  0.70242338  0.29083149  0.09861272     1.35200
C1187       C  0.73460479  0.29092004  0.07429138     0.78000
C1188       C  0.69528421  0.30020615  0.13716323     0.78000
C1189       C  0.72138446  0.26008299  0.11687427     0.77900
C1190       C  0.70839348  0.33066468  0.09605973     0.77900
O1191       O  0.58963046  0.28196132  0.28627104    -0.71300
O1192       O  0.63610096  0.31162021  0.29736682    -0.71500
O1193       O  0.60419170  0.30062212  0.31774181    -0.71300
O1194       O  0.62231019  0.29264875  0.26603825    -0.71400
O1195       O  0.60867079  0.31989181  0.25661439    -0.71300
O1196       O  0.58823787  0.32663063  0.30843691    -0.71300
O1197       O  0.62071182  0.33842257  0.28952535    -0.71300
O1198       O  0.57559524  0.30865417  0.27595280    -0.71500
V1199       V  0.61272574  0.29719506  0.29161736     1.35200
V1200       V  0.59856649  0.32285081  0.28270966     1.35200
C1201       C  0.57445531  0.29053392  0.27970688     0.78000
C1202       C  0.63612757  0.33014786  0.29562948     0.78000
C1203       C  0.59314878  0.31484668  0.32194673     0.77900
C1204       C  0.61949700  0.30525152  0.25278028     0.77900
O1205       O  0.73895362  0.08858512  0.22629626    -0.71300
O1206       O  0.73211556  0.13719660  0.19959535    -0.71500
O1207       O  0.70814367  0.10784730  0.21085889    -0.71300
O1208       O  0.76258513  0.11825300  0.21524954    -0.71400
O1209       O  0.76710837  0.10691000  0.18579619    -0.71300
O1210       O  0.71341486  0.09054997  0.18460867    -0.71300
O1211       O  0.73362380  0.12188210  0.17166676    -0.71300
O1212       O  0.74669182  0.07472600  0.19865148    -0.71500
V1213       V  0.73551775  0.11264274  0.21250037     1.35200
V1214       V  0.74020811  0.09868967  0.18570967     1.35200
C1215       C  0.74409032  0.07336395  0.21698844     0.78000
C1216       C  0.73144794  0.13771197  0.18104665     0.78000
C1217       C  0.70150603  0.09714546  0.19726099     0.77900
C1218       C  0.77379999  0.11571786  0.20075596     0.77900
O1219       O  0.92798841  0.24508023  0.23689810    -0.71300
O1220       O  0.88339682  0.21401753  0.22207199    -0.71500
O1221       O  0.89419296  0.23353468  0.25457844    -0.71300
O1222       O  0.91637022  0.22582549  0.20428744    -0.71400
O1223       O  0.92923097  0.19829035  0.21395263    -0.71300
O1224       O  0.91119147  0.20912504  0.26607141    -0.71300
O1225       O  0.89740261  0.18867759  0.23543217    -0.71300
O1226       O  0.94342642  0.21832977  0.24478629    -0.71500
V1227       V  0.90582254  0.22919969  0.22971268     1.35200
V1228       V  0.92006390  0.20411271  0.23988533     1.35200
C1229       C  0.94362307  0.23671724  0.24264856     0.78000
C1230       C  0.88278485  0.19601274  0.22672702     0.78000
C1231       C  0.89877269  0.22268526  0.26887797     0.77900
C1232       C  0.92578237  0.21040875  0.20024841     0.77900
O1233       O  0.79100871  0.25003517  0.44034788    -0.71300
O1234       O  0.81653563  0.24029877  0.39173108    -0.71500
O1235       O  0.80406298  0.21778701  0.42181032    -0.71300
O1236       O  0.80335774  0.27221559  0.41022410    -0.71400
O1237       O  0.83293665  0.27509511  0.42181608    -0.71300
O1238       O  0.83107533  0.22163325  0.43831015    -0.71300
O1239       O  0.84474614  0.24085353  0.40658874    -0.71300
O1240       O  0.81929288  0.25569557  0.45394724    -0.71500
V1241       V  0.80426469  0.24512158  0.41633116     1.35200
V1242       V  0.83148168  0.24830199  0.42995357     1.35200
C1243       C  0.80082593  0.25467840  0.45538319     0.78000
C1244       C  0.83500810  0.23879609  0.39093819     0.78000
C1245       C  0.81745169  0.21050919  0.43238803     0.77900
C1246       C  0.81836838  0.28264936  0.41311457     0.77900
O1247       O  0.77962737  0.43758441  0.28772212    -0.71300
O1248       O  0.79771165  0.39533263  0.31990876    -0.71500
O1249       O  0.76392418  0.40358643  0.30161530    -0.71300
O1250       O  0.81338212  0.42865606  0.30627343    -0.71400
O1251       O  0.80391368  0.44225328  0.33349967    -0.71300
O1252       O  0.75262973  0.42077685  0.32596109    -0.71300
O1253       O  0.78507556  0.40965198  0.34542729    -0.71300
O1254       O  0.77146303  0.45370866  0.31395925    -0.71500
V1255       V  0.78837777  0.41663439  0.30430574     1.35200
V1256       V  0.77843239  0.43136826  0.32919382     1.35200
C1257       C  0.77322514  0.45322123  0.29549023     0.78000
C1258       C  0.79411200  0.39519229  0.33812241     0.78000
C1259       C  0.74994992  0.40763533  0.31310767     0.77900
C1260       C  0.81739289  0.43897211  0.32113982     0.77900
O1261       O  0.77439234  0.79248222  0.09349063    -0.71300
O1262       O  0.80730403  0.80188837  0.13784590    -0.71500
O1263       O  0.79575820  0.82278221  0.10702880    -0.71300
O1264       O  0.78594365  0.77134283  0.12537282    -0.71400
O1265       O  0.81011139  0.76000344  0.10797894    -0.71300
O1266       O  0.82168147  0.81251090  0.09157201    -0.71300
O1267       O  0.83196237  0.78948859  0.12186410    -0.71300
O1268       O  0.79997370  0.78316997  0.07692503    -0.71500
V1269       V  0.79124713  0.79679478  0.11555145     1.35200
V1270       V  0.81538793  0.78643182  0.09982873     1.35200
C1271       C  0.78188982  0.78714304  0.07733115     0.78000
C1272       C  0.82527978  0.79732794  0.13723074     0.78000
C1273       C  0.81076182  0.82658472  0.09690370     0.77900
C1274       C  0.79667266  0.75704183  0.12049368     0.77900
O1275       O  0.72906761  0.93864057  0.27973905    -0.71300
O1276       O  0.71673644  0.89453028  0.31233594    -0.71500
O1277       O  0.69744684  0.92650610  0.30006573    -0.71300
O1278       O  0.74826299  0.90590561  0.29176217    -0.71400
O1279       O  0.75962121  0.92315705  0.31603763    -0.71300
O1280       O  0.70736010  0.94112231  0.32660083    -0.71300
O1281       O  0.72943440  0.90986932  0.33724755    -0.71300
O1282       O  0.73785515  0.95475564  0.30579496    -0.71500
V1283       V  0.72312598  0.91674147  0.29641786     1.35200
V1284       V  0.73336673  0.93196450  0.32091719     1.35200
C1285       C  0.73500504  0.95447349  0.28750540     0.78000
C1286       C  0.72150830  0.89466926  0.33029966     0.78000
C1287       C  0.69352594  0.93684081  0.31490182     0.77900
C1288       C  0.76253666  0.91070102  0.30252881     0.77900
O1289       O  0.93091377  0.79535852  0.28004567    -0.71300
O1290       O  0.88144533  0.82094612  0.28649204    -0.71500
O1291       O  0.90191472  0.80683399  0.25603199    -0.71300
O1292       O  0.91015740  0.80926111  0.31083798    -0.71400
O1293       O  0.92804973  0.83535862  0.30670900    -0.71300
O1294       O  0.91203734  0.83698397  0.25335499    -0.71300
O1295       O  0.89659635  0.84898123  0.28739550    -0.71300
O1296       O  0.94403798  0.82353082  0.27291022    -0.71500
V1297       V  0.90639709  0.80854383  0.28331522     1.35200
V1298       V  0.91998868  0.83570648  0.28009698     1.35200
C1299       C  0.94584484  0.80516851  0.27490434     0.78000
C1300       C  0.88077061  0.83941488  0.28855989     0.78000
C1301       C  0.90433588  0.82196496  0.24566491     0.77900
C1302       C  0.92092058  0.82250186  0.31800436     0.77900
O1303       O  0.77311931  0.58913029  0.23615731    -0.71300
O1304       O  0.78209582  0.63713526  0.20850950    -0.71500
O1305       O  0.75078371  0.61991089  0.22463649    -0.71300
O1306       O  0.80472516  0.60680242  0.22028981    -0.71400
O1307       O  0.79866064  0.59012160  0.19381129    -0.71300
O1308       O  0.74535166  0.60736920  0.19582964    -0.71300
O1309       O  0.77886898  0.62161234  0.18085767    -0.71300
O1310       O  0.76555408  0.57495047  0.20863693    -0.71500
V1311       V  0.77757292  0.61289689  0.22190581     1.35200
V1312       V  0.77210704  0.59871639  0.19535356     1.35200
C1313       C  0.76797926  0.57377723  0.22700870     0.78000
C1314       C  0.78225542  0.63742076  0.18991750     0.78000
C1315       C  0.73921997  0.61707784  0.21046317     0.77900
C1316       C  0.81088791  0.59617270  0.20641609     0.77900
O1317       O  0.72503784  0.75213426  0.44012940    -0.71300
O1318       O  0.70010675  0.74207534  0.39118996    -0.71500
O1319       O  0.71501772  0.77381213  0.40896403    -0.71300
O1320       O  0.71032172  0.72010514  0.42227560    -0.71400
O1321       O  0.68327999  0.72630742  0.43799440    -0.71300
O1322       O  0.68529573  0.77895789  0.41932819    -0.71300
O1323       O  0.67168572  0.74480156  0.40538336    -0.71300
O1324       O  0.69684442  0.76026378  0.45261582    -0.71500
V1325       V  0.71211305  0.74711773  0.41592806     1.35200
V1326       V  0.68482703  0.75255528  0.42865040     1.35200
C1327       C  0.71515974  0.75819417  0.45462292     0.78000
C1328       C  0.68158744  0.74130066  0.39013327     0.78000
C1329       C  0.70061085  0.78524778  0.41092359     0.77900
C1330       C  0.69609687  0.71407372  0.43250444     0.77900
O1331       O  0.58363408  0.74757741  0.23898006    -0.71300
O1332       O  0.62815302  0.71573768  0.22594248    -0.71500
O1333       O  0.59586570  0.72810741  0.20711475    -0.71300
O1334       O  0.61661649  0.73546351  0.25788068    -0.71400
O1335       O  0.59931136  0.71103859  0.26886898    -0.71300
O1336       O  0.58201983  0.70096010  0.21652264    -0.71300
O1337       O  0.61329039  0.69043668  0.23838172    -0.71300
O1338       O  0.56767461  0.72116232  0.24692742    -0.71500
V1339       V  0.60574153  0.73128290  0.23274704     1.35200
V1340       V  0.59083711  0.70641285  0.24253174     1.35200
C1341       C  0.56770424  0.73949191  0.24419843     0.78000
C1342       C  0.62833503  0.69764733  0.23031821     0.78000
C1343       C  0.58590948  0.71309580  0.20299097     0.77900
C1344       C  0.61181630  0.72443313  0.27193930     0.77900
C1345       C  0.64876677  0.72893538  0.35125149     0.20800
C1346       C  0.63110281  0.72268897  0.34261401    -0.39000
C1347       C  0.62982401  0.72504858  0.32218077     0.19800
C1348       C  0.64490637  0.73329795  0.31136881     0.22500
C1349       C  0.66267204  0.73914147  0.31991895    -0.39500
C1350       C  0.66405851  0.73651313  0.34024039     0.21300
N1351       N  0.65327749  0.72924435  0.37044323    -0.32800
C1352       C  0.67163254  0.73683423  0.37156988    -0.10400
C1353       C  0.67893989  0.74135493  0.35303226    -0.29200
N1354       N  0.63997398  0.73453228  0.29238342    -0.45800
C1355       C  0.62177413  0.72670583  0.29090759    -0.05100
C1356       C  0.61491040  0.72050123  0.30917771    -0.22400
H1357       H  0.61917879  0.71665966  0.35118898     0.19400
H1358       H  0.67446364  0.74549412  0.31139016     0.18200
H1359       H  0.69283693  0.74817492  0.34950446     0.14500
H1360       H  0.60096853  0.71366579  0.31247561     0.14300
H1361       H  0.64430918  0.72491154  0.38209107     0.32500
H1362       H  0.64867692  0.73995957  0.28099030     0.35200
C1363       C  0.69945697  0.65089344  0.20810112     0.20800
C1364       C  0.69072636  0.66917995  0.20408020    -0.39000
C1365       C  0.67311082  0.67315412  0.21403173     0.19800
C1366       C  0.66479613  0.65983135  0.22689730     0.22500
C1367       C  0.67371629  0.64170886  0.23120565    -0.39500
C1368       C  0.69140272  0.63779197  0.22135734     0.21300
N1369       N  0.71671597  0.64413364  0.20133362    -0.32800
C1370       C  0.71987271  0.62671832  0.21045713    -0.10400
C1371       C  0.70443971  0.62231355  0.22318306    -0.29200
N1372       N  0.64793357  0.66693721  0.23427596    -0.45800
C1373       C  0.64550766  0.68500876  0.22624478    -0.05100
C1374       C  0.66099919  0.68946130  0.21358765    -0.22400
H1375       H  0.69729569  0.67963943  0.19409685     0.19400
H1376       H  0.66746515  0.63151533  0.24165748     0.18200
H1377       H  0.70344704  0.61005149  0.23323097     0.14500
H1378       H  0.66297612  0.70268930  0.20502084     0.14300
H1379       H  0.72644506  0.65154218  0.19209065     0.32500
H1380       H  0.63864298  0.65993305  0.24425161     0.35200
C1381       C  0.80234651  0.87827841  0.29191084     0.20800
C1382       C  0.81099456  0.86076151  0.28534909    -0.39000
C1383       C  0.83104425  0.85858713  0.28942052     0.19800
C1384       C  0.84174360  0.87297303  0.29894780     0.22500
C1385       C  0.83301950  0.89040903  0.30575509    -0.39500
C1386       C  0.81283963  0.89242262  0.30200949     0.21300
N1387       N  0.78344239  0.88352645  0.29026992    -0.32800
C1388       C  0.78165874  0.90095487  0.29970073    -0.10400
C1389       C  0.79971882  0.90703627  0.30724225    -0.29200
N1390       N  0.86072368  0.86773707  0.30024542    -0.45800
C1391       C  0.86206865  0.84979061  0.29172970    -0.05100
C1392       C  0.84382011  0.84351553  0.28493141    -0.22400
H1393       H  0.80268285  0.84959970  0.27770340     0.19400
H1394       H  0.84131442  0.90153153  0.31347226     0.18200
H1395       H  0.80275124  0.92013603  0.31568269     0.14500
H1396       H  0.84052332  0.83012771  0.27705536     0.14300
H1397       H  0.77223675  0.87536573  0.28373223     0.32500
H1398       H  0.87212984  0.87596028  0.30633643     0.35200
C1399       C  0.71492659  0.83008321  0.38879166     0.20800
C1400       C  0.72831320  0.84438705  0.38252531    -0.39000
C1401       C  0.72200861  0.85628078  0.36696977     0.19800
C1402       C  0.70394831  0.85382384  0.35799092     0.22500
C1403       C  0.69042101  0.83971313  0.36448952    -0.39500
C1404       C  0.69654181  0.82809624  0.38037434     0.21300
N1405       N  0.71808776  0.81586071  0.40205699    -0.32800
C1406       C  0.70152093  0.80489850  0.40229863    -0.10400
C1407       C  0.68763289  0.81220284  0.38917057    -0.29200
N1408       N  0.70170644  0.86667332  0.34315854    -0.45800
C1409       C  0.71828013  0.87763607  0.34306588    -0.05100
C1410       C  0.73125613  0.87163597  0.35769666    -0.22400
H1411       H  0.74269500  0.84594454  0.38907947     0.19400
H1412       H  0.67630801  0.83770955  0.35749347     0.18200
H1413       H  0.67376761  0.80558372  0.38516186     0.14500
H1414       H  0.74548944  0.87778543  0.36112537     0.14300
H1415       H  0.73114125  0.81303822  0.40958619     0.32500
H1416       H  0.68944122  0.86834118  0.33411838     0.35200
C1417       C  0.78380895  0.68626520  0.17068853     0.20800
C1418       C  0.77902810  0.70625705  0.16975639    -0.39000
C1419       C  0.78591351  0.71639230  0.15322107     0.19800
C1420       C  0.79708225  0.70749049  0.13879435     0.22500
C1421       C  0.80165112  0.68733268  0.13958324    -0.39500
C1422       C  0.79438724  0.67704551  0.15600355     0.21300
N1423       N  0.77874545  0.67346056  0.18482907    -0.32800
C1424       C  0.78577211  0.65580758  0.17901882    -0.10400
C1425       C  0.79554477  0.65739896  0.16104300    -0.29200
N1426       N  0.80227694  0.72065330  0.12490124    -0.45800
C1427       C  0.79400710  0.73792591  0.13044751    -0.05100
C1428       C  0.78370892  0.73575838  0.14800370    -0.22400
H1429       H  0.77047431  0.71340370  0.18106444     0.19400
H1430       H  0.81011085  0.68016748  0.12821960     0.18200
H1431       H  0.80249009  0.64575068  0.15278664     0.14500
H1432       H  0.77605578  0.74703138  0.15616150     0.14300
H1433       H  0.77047226  0.67641470  0.19738686     0.32500
H1434       H  0.81094397  0.71809146  0.11253021     0.35200
C1435       C  0.85204312  0.81661868  0.17770060     0.20800
C1436       C  0.85659148  0.82980156  0.19281611    -0.39000
C1437       C  0.87387115  0.82576758  0.20322205     0.19800
C1438       C  0.88549167  0.80960229  0.19911711     0.22500
C1439       C  0.88115719  0.79666135  0.18374747    -0.39500
C1440       C  0.86408284  0.80090005  0.17313820     0.21300
N1441       N  0.83619799  0.81689802  0.16598857    -0.32800
C1442       C  0.83842942  0.80146833  0.15367896    -0.10400
C1443       C  0.85564786  0.79118121  0.15761184    -0.29200
N1444       N  0.89936385  0.80733845  0.21289992    -0.45800
C1445       C  0.89671082  0.82228529  0.22569418    -0.05100
C1446       C  0.88114620  0.83425529  0.22003009    -0.22400
H1447       H  0.84706024  0.84192651  0.19660495     0.19400
H1448       H  0.89007719  0.78388416  0.18067756     0.18200
H1449       H  0.86122169  0.77835401  0.15008917     0.14500
H1450       H  0.87454083  0.84602855  0.22840016     0.14300
H1451       H  0.82486838  0.82722308  0.16599096     0.32500
H1452       H  0.90895771  0.79547631  0.21442593     0.35200
C1453       C  0.76380754  0.50156892  0.27701630     0.20800
C1454       C  0.76161931  0.52201803  0.27854127    -0.39000
C1455       C  0.76301552  0.53261852  0.26092810     0.19800
C1456       C  0.76608308  0.52352149  0.24304844     0.22500
C1457       C  0.76847643  0.50301598  0.24152926    -0.39500
C1458       C  0.76729807  0.49239941  0.25924474     0.21300
N1459       N  0.76444709  0.48855528  0.29183695    -0.32800
C1460       C  0.76869300  0.47091641  0.28365613    -0.10400
C1461       C  0.77043145  0.47268520  0.26326150    -0.29200
N1462       N  0.76746719  0.53698479  0.22860476    -0.45800
C1463       C  0.76556277  0.55479438  0.23738338    -0.05100
C1464       C  0.76279319  0.55262148  0.25756320    -0.22400
H1465       H  0.75955387  0.52921779  0.29254159     0.19400
H1466       H  0.77156725  0.49592191  0.22766438     0.18200
H1467       H  0.77441804  0.46131744  0.25291929     0.14500
H1468       H  0.76130310  0.56414634  0.26838121     0.14300
H1469       H  0.76307606  0.49168945  0.30677768     0.32500
H1470       H  0.77033189  0.53427538  0.21379510     0.35200
C1471       C  0.82184197  0.32508404  0.38317725     0.20800
C1472       C  0.82602625  0.33513239  0.36562642    -0.39000
C1473       C  0.81478629  0.35206507  0.36205831     0.19800
C1474       C  0.80064560  0.35854811  0.37510980     0.22500
C1475       C  0.79625008  0.34834646  0.39243887    -0.39500
C1476       C  0.80731594  0.33135816  0.39590365     0.21300
N1477       N  0.82911685  0.30769204  0.38905623    -0.32800
C1478       C  0.81890757  0.30272747  0.40540197    -0.10400
C1479       C  0.80519580  0.31712536  0.41011642    -0.29200
N1480       N  0.79177034  0.37477797  0.36830643    -0.45800
C1481       C  0.80006980  0.37859264  0.35065297    -0.05100
C1482       C  0.81448139  0.36471210  0.34618420    -0.22400
H1483       H  0.83682898  0.32984668  0.35526041     0.19400
H1484       H  0.78464188  0.35298700  0.40222572     0.18200
H1485       H  0.79410183  0.31649343  0.42145776     0.14500
H1486       H  0.82345416  0.36396509  0.33310664     0.14300
H1487       H  0.83910919  0.29890234  0.38145281     0.32500
H1488       H  0.78043830  0.38256571  0.37507319     0.35200
C1489       C  0.88292627  0.22452347  0.31898702     0.20800
C1490       C  0.88396214  0.22176987  0.33939766    -0.39000
C1491       C  0.86744773  0.22786662  0.35011155     0.19800
C1492       C  0.85103690  0.23580930  0.34114092     0.22500
C1493       C  0.85012910  0.23888705  0.32079897    -0.39500
C1494       C  0.86674933  0.23306541  0.31013847     0.21300
N1495       N  0.89653450  0.21969692  0.30549617    -0.32800
C1496       C  0.88907155  0.22552688  0.28799499    -0.10400
C1497       C  0.87057295  0.23399825  0.29032261    -0.29200
N1498       N  0.83721051  0.24017128  0.35450000    -0.45800
C1499       C  0.84498231  0.23527658  0.37214132    -0.05100
C1500       C  0.86384993  0.22762327  0.37003281    -0.22400
H1501       H  0.89668740  0.21536677  0.34642057     0.19400
H1502       H  0.83742427  0.24535000  0.31378668     0.18200
H1503       H  0.86102447  0.23966227  0.27895628     0.14500
H1504       H  0.87361514  0.22263836  0.38152745     0.14300
H1505       H  0.91005568  0.21293894  0.30802189     0.32500
H1506       H  0.82353295  0.24656410  0.35184617     0.35200
C1507       C  0.74566841  0.03332257  0.25087365     0.20800
C1508       C  0.74446627  0.02437925  0.26935791    -0.39000
C1509       C  0.74251587  0.00391132  0.26930173     0.19800
C1510       C  0.74162070  0.99304871  0.25216877     0.22500
C1511       C  0.74303831  0.00201098  0.23359878    -0.39500
C1512       C  0.74517487  0.02257478  0.23364453     0.21300
N1513       N  0.74623088  0.05266350  0.24707248    -0.32800
C1514       C  0.74615103  0.05439152  0.22726498    -0.10400
C1515       C  0.74571907  0.03591532  0.21834570    -0.29200
N1516       N  0.73884322  0.97386100  0.25623406    -0.45800
C1517       C  0.73818342  0.97261725  0.27610789    -0.05100
C1518       C  0.74046613  0.99104749  0.28468995    -0.22400
H1519       H  0.74461746  0.03279776  0.28282248     0.19400
H1520       H  0.74212176  0.99366275  0.22012437     0.18200
H1521       H  0.74472394  0.03273369  0.20281957     0.14500
H1522       H  0.74024217  0.99460532  0.30016871     0.14300
H1523       H  0.74592029  0.06403256  0.25734508     0.32500
H1524       H  0.73741220  0.96239170  0.24617567     0.35200
C1525       C  0.81943109  0.13675274  0.21456165     0.20800
C1526       C  0.83458492  0.14135745  0.22770516    -0.39000
C1527       C  0.84534977  0.15835066  0.22338944     0.19800
C1528       C  0.84117439  0.17017617  0.20740892     0.22500
C1529       C  0.82611837  0.16542826  0.19407645    -0.39500
C1530       C  0.81554623  0.14814465  0.19819143     0.21300
N1531       N  0.80598560  0.12244624  0.21649386    -0.32800
C1532       C  0.79354141  0.12444828  0.20111397    -0.10400
C1533       C  0.79912674  0.14024033  0.18926966    -0.29200
N1534       N  0.85342555  0.18572384  0.20686204    -0.45800
C1535       C  0.86567806  0.18346608  0.22241466    -0.05100
C1536       C  0.86105040  0.16659087  0.23302016    -0.22400
H1537       H  0.83758184  0.13251055  0.24055720     0.19400
H1538       H  0.82267245  0.17466120  0.18161603     0.18200
H1539       H  0.79104860  0.14637658  0.17704022     0.14500
H1540       H  0.86838758  0.16098118  0.24594831     0.14300
H1541       H  0.80454046  0.11276913  0.22829885     0.32500
H1542       H  0.85386209  0.19677787  0.19624893     0.35200
C1543       C  0.71250399  0.37150651  0.30687153     0.20800
C1544       C  0.70509474  0.35294490  0.30200665    -0.39000
C1545       C  0.68466940  0.35094651  0.30279019     0.19800
C1546       C  0.67243973  0.36636945  0.30776021     0.22500
C1547       C  0.67991152  0.38491969  0.31313146    -0.39500
C1548       C  0.70049647  0.38684917  0.31260392     0.21300
N1549       N  0.73132761  0.37719238  0.30631103    -0.32800
C1550       C  0.73158107  0.39623226  0.31197458    -0.10400
C1551       C  0.71261644  0.40280494  0.31628784    -0.29200
N1552       N  0.65350303  0.36092215  0.30603742    -0.45800
C1553       C  0.65378814  0.34182989  0.30025168    -0.05100
C1554       C  0.67296848  0.33509356  0.29823405    -0.22400
H1555       H  0.71456068  0.34100220  0.29754161     0.19400
H1556       H  0.67041058  0.39702555  0.31704844     0.18200
H1557       H  0.70825999  0.41736261  0.32089319     0.14500
H1558       H  0.67769658  0.32075270  0.29332046     0.14300
H1559       H  0.74337088  0.36858641  0.30232996     0.32500
H1560       H  0.64115316  0.36966227  0.30847718     0.35200
C1561       C  0.72008424  0.20984616  0.13244189     0.20800
C1562       C  0.71437718  0.18999681  0.13259935    -0.39000
C1563       C  0.72142801  0.17875441  0.14843582     0.19800
C1564       C  0.73288205  0.18683202  0.16314835     0.22500
C1565       C  0.73886267  0.20648537  0.16278700    -0.39500
C1566       C  0.73217312  0.21756563  0.14682146     0.21300
N1567       N  0.71491254  0.22386148  0.11945787    -0.32800
C1568       C  0.72409911  0.24045694  0.12553027    -0.10400
C1569       C  0.73505170  0.23703520  0.14245748    -0.29200
N1570       N  0.73730979  0.17335844  0.17682214    -0.45800
C1571       C  0.72898944  0.15642950  0.17064647    -0.05100
C1572       C  0.71903528  0.15911568  0.15292523    -0.22400
H1573       H  0.70511054  0.18379238  0.12129564     0.19400
H1574       H  0.74800164  0.21273011  0.17417506     0.18200
H1575       H  0.74332360  0.24761981  0.15092686     0.14500
H1576       H  0.71112297  0.14820451  0.14453310     0.14300
H1577       H  0.70552869  0.22232628  0.10743736     0.32500
H1578       H  0.74594117  0.17539947  0.18932698     0.35200
C1579       C  0.63999627  0.30840582  0.20446736     0.20800
C1580       C  0.64231683  0.31515309  0.18511208    -0.39000
C1581       C  0.65938082  0.30882277  0.17541099     0.19800
C1582       C  0.67324128  0.29700226  0.18443410     0.22500
C1583       C  0.67071016  0.28990440  0.20357090    -0.39500
C1584       C  0.65352751  0.29595224  0.21311827     0.21300
N1585       N  0.62560206  0.31302570  0.21722318    -0.32800
C1586       C  0.62995228  0.30318464  0.23397577    -0.10400
C1587       C  0.64713248  0.29226237  0.23187116    -0.29200
N1588       N  0.68827265  0.29326127  0.17224175    -0.45800
C1589       C  0.68373699  0.30237461  0.15518016    -0.05100
C1590       C  0.66582393  0.31217935  0.15651905    -0.22400
H1591       H  0.63169448  0.32469859  0.17815795     0.19400
H1592       H  0.68140745  0.28047576  0.21057683     0.18200
H1593       H  0.65450961  0.28359789  0.24296310     0.14500
H1594       H  0.65842627  0.32040673  0.14511881     0.14300
H1595       H  0.61385590  0.32258042  0.21485010     0.32500
H1596       H  0.70045479  0.28438532  0.17504674     0.35200
C1597       C  0.01518155  0.28694330  0.25183694     0.20800
C1598       C  0.99462441  0.28884401  0.25137479    -0.39000
C1599       C  0.98396195  0.27125616  0.24995434     0.19800
C1600       C  0.99313935  0.25315831  0.24933810     0.22500
C1601       C  0.01369944  0.25125971  0.24962985    -0.39500
C1602       C  0.02436557  0.26886720  0.25078935     0.21300
N1603       N  0.02851021  0.30148508  0.25183372    -0.32800
C1604       C  0.04635103  0.29273097  0.25045313    -0.10400
C1605       C  0.04436407  0.27232972  0.24986248    -0.29200
N1606       N  0.97984098  0.23874028  0.24729730    -0.45800
C1607       C  0.96204072  0.24763669  0.24627240    -0.05100
C1608       C  0.96400517  0.26797018  0.24793267    -0.22400
H1609       H  0.98747940  0.30302710  0.25153312     0.19400
H1610       H  0.02086598  0.23713368  0.24846962     0.18200
H1611       H  0.05589800  0.26155719  0.24810905     0.14500
H1612       H  0.95247729  0.27887170  0.24728228     0.14300
H1613       H  0.02558516  0.31653313  0.25176342     0.32500
H1614       H  0.98276387  0.22375147  0.24595872     0.35200
C1615       C  0.16013088  0.31053089  0.34384588     0.20800
C1616       C  0.16001037  0.30695004  0.32364795    -0.39000
C1617       C  0.14320439  0.31309907  0.31361793     0.19800
C1618       C  0.12776941  0.32258935  0.32279476     0.22500
C1619       C  0.12778604  0.32600813  0.34317106    -0.39500
C1620       C  0.14450255  0.31937080  0.35336271     0.21300
N1621       N  0.17413271  0.30527205  0.35663437    -0.32800
C1622       C  0.16729940  0.31034795  0.37454609    -0.10400
C1623       C  0.14884062  0.31919569  0.37318498    -0.29200
N1624       N  0.11348999  0.32682832  0.30974444    -0.45800
C1625       C  0.11986370  0.31950164  0.29235737    -0.05100
C1626       C  0.13829407  0.31091246  0.29424197    -0.22400
H1627       H  0.17197596  0.29950795  0.31632737     0.19400
H1628       H  0.11555244  0.33289876  0.35058130     0.18200
H1629       H  0.13976280  0.32450414  0.38507973     0.14500
H1630       H  0.14698892  0.30403988  0.28286749     0.14300
H1631       H  0.18722971  0.29797077  0.35345810     0.32500
H1632       H  0.10016295  0.33385714  0.31253011     0.35200
C1633       C  0.52392432  0.27662084  0.27483548     0.20800
C1634       C  0.50360994  0.27994776  0.27339958    -0.39000
C1635       C  0.49163739  0.26318668  0.27401176     0.19800
C1636       C  0.49934077  0.24448563  0.27573978     0.22500
C1637       C  0.51969797  0.24117779  0.27753266    -0.39500
C1638       C  0.53170345  0.25800424  0.27706673     0.21300
N1639       N  0.53823160  0.29018634  0.27488333    -0.32800
C1640       C  0.55536520  0.28033983  0.27736587    -0.10400
C1641       C  0.55188884  0.26015005  0.27887272    -0.29200
N1642       N  0.48483076  0.23104838  0.27608530    -0.45800
C1643       C  0.46773326  0.24124698  0.27488017    -0.05100
C1644       C  0.47142438  0.26137159  0.27359750    -0.22400
H1645       H  0.49755441  0.29457141  0.27206753     0.19400
H1646       H  0.52572512  0.22659112  0.27930777     0.18200
H1647       H  0.56259903  0.24866777  0.28125162     0.14500
H1648       H  0.46075238  0.27310383  0.27276269     0.14300
H1649       H  0.53638538  0.30536848  0.27382276     0.32500
H1650       H  0.48642664  0.21588734  0.27768433     0.35200
C1651       C  0.30080162  0.16519913  0.29253231     0.20800
C1652       C  0.31035366  0.18241953  0.28646902    -0.39000
C1653       C  0.33078825  0.18267270  0.28888098     0.19800
C1654       C  0.34099818  0.16682609  0.29644559     0.22500
C1655       C  0.33138371  0.14969094  0.30285970    -0.39500
C1656       C  0.31084841  0.14956324  0.30073287     0.21300
N1657       N  0.28146520  0.16148107  0.29187171    -0.32800
C1658       C  0.27899264  0.14349883  0.30001577    -0.10400
C1659       C  0.29700478  0.13557465  0.30580771    -0.29200
N1660       N  0.36040050  0.17054488  0.29659194    -0.45800
C1661       C  0.36250403  0.18900431  0.28937927    -0.05100
C1662       C  0.34433920  0.19707300  0.28450639    -0.22400
H1663       H  0.30243061  0.19474875  0.28033803     0.19400
H1664       H  0.33929855  0.13739622  0.30906829     0.18200
H1665       H  0.29959198  0.12156916  0.31284099     0.14500
H1666       H  0.34149000  0.21137077  0.27819707     0.14300
H1667       H  0.27050834  0.17086457  0.28667635     0.32500
H1668       H  0.37153283  0.16115756  0.30138383     0.35200
C1669       C  0.20056923  0.19245502  0.35952546     0.20800
C1670       C  0.18686527  0.20621843  0.36662367    -0.39000
C1671       C  0.19341960  0.21839439  0.38199414     0.19800
C1672       C  0.21229350  0.21712739  0.38938497     0.22500
C1673       C  0.22582508  0.20321006  0.38253861    -0.39500
C1674       C  0.21917563  0.19085746  0.36749796     0.21300
N1675       N  0.19813213  0.17930384  0.34493090    -0.32800
C1676       C  0.21519407  0.16905903  0.34395678    -0.10400
C1677       C  0.22860280  0.17581189  0.35784343    -0.29200
N1678       N  0.21570959  0.23158301  0.40233207    -0.45800
C1679       C  0.19888620  0.24210477  0.40349139    -0.05100
C1680       C  0.18451586  0.23419888  0.39116725    -0.22400
H1681       H  0.17232005  0.20759430  0.36040248     0.19400
H1682       H  0.24060110  0.20228952  0.38828555     0.18200
H1683       H  0.24327463  0.17036232  0.36054095     0.14500
H1684       H  0.17021897  0.24031184  0.38793364     0.14300
H1685       H  0.18548653  0.17701267  0.33658324     0.32500
H1686       H  0.22907206  0.23482385  0.40910594     0.35200
C1687       C  0.16196586  0.38205962  0.22593046     0.20800
C1688       C  0.17112234  0.40003434  0.23017806    -0.39000
C1689       C  0.18951509  0.40305870  0.22144514     0.19800
C1690       C  0.19803155  0.38927759  0.20921129     0.22500
C1691       C  0.18898669  0.37113859  0.20517273    -0.39500
C1692       C  0.17064186  0.36803421  0.21409235     0.21300
N1693       N  0.14469492  0.37558743  0.23286294    -0.32800
C1694       C  0.14233867  0.35719505  0.22565752    -0.10400
C1695       C  0.15826607  0.35190983  0.21386784    -0.29200
N1696       N  0.21596145  0.39526792  0.20355239    -0.45800
C1697       C  0.21899479  0.41286216  0.21237306    -0.05100
C1698       C  0.20286147  0.41816638  0.22376462    -0.22400
H1699       H  0.16457644  0.41071487  0.23993292     0.19400
H1700       H  0.19591315  0.36010499  0.19609439     0.18200
H1701       H  0.16050868  0.33815739  0.20625496     0.14500
H1702       H  0.20151014  0.43081820  0.23325919     0.14300
H1703       H  0.13522305  0.38310826  0.24227369     0.32500
H1704       H  0.22605867  0.38732670  0.19518996     0.35200
C1705       C  0.29265344  0.36337978  0.15887984     0.20800
C1706       C  0.29967590  0.35536498  0.14121203    -0.39000
C1707       C  0.29697054  0.33507032  0.13893170     0.19800
C1708       C  0.28766324  0.32383721  0.15306827     0.22500
C1709       C  0.28099045  0.33175836  0.17082770    -0.39500
C1710       C  0.28398850  0.35191984  0.17324218     0.21300
N1711       N  0.29295261  0.38229147  0.16441693    -0.32800
C1712       C  0.28472043  0.38276550  0.18252978    -0.10400
C1713       C  0.27905191  0.36409936  0.18860048    -0.29200
N1714       N  0.28659984  0.30506072  0.14741970    -0.45800
C1715       C  0.29558492  0.30412784  0.12972525    -0.05100
C1716       C  0.30235960  0.32254859  0.12388998    -0.22400
H1717       H  0.30669036  0.36426585  0.13008677     0.19400
H1718       H  0.27395049  0.32285928  0.18194124     0.18200
H1719       H  0.27169162  0.36011376  0.20209642     0.14500
H1720       H  0.31022920  0.32622376  0.11059857     0.14300
H1721       H  0.29832180  0.39417210  0.15635416     0.32500
H1722       H  0.28062763  0.29342235  0.15541763     0.35200
C1723       C  0.35178471  0.22551237  0.17753113     0.20800
C1724       C  0.35797179  0.21155299  0.19139201    -0.39000
C1725       C  0.37434567  0.21685932  0.20274590     0.19800
C1726       C  0.38351445  0.23488029  0.20075465     0.22500
C1727       C  0.37753741  0.24867548  0.18671911    -0.39500
C1728       C  0.36148799  0.24319560  0.17511123     0.21300
N1729       N  0.33681030  0.22397514  0.16472896    -0.32800
C1730       C  0.33738514  0.24062275  0.15385089    -0.10400
C1731       C  0.35252796  0.25293510  0.15990009    -0.29200
N1732       N  0.39717667  0.23734260  0.21474088    -0.45800
C1733       C  0.39694077  0.22067615  0.22556493    -0.05100
C1734       C  0.38306851  0.20744328  0.21839522    -0.22400
H1735       H  0.35044927  0.19770973  0.19337338     0.19400
H1736       H  0.38470452  0.26275640  0.18511771     0.18200
H1737       H  0.35666533  0.26695579  0.15368316     0.14500
H1738       H  0.37852108  0.19375083  0.22504250     0.14300
H1739       H  0.32739842  0.21202303  0.16289519     0.32500
H1740       H  0.40522216  0.25007552  0.21757475     0.35200
C1741       C  0.25215649  0.26220999  0.03437245     0.20800
C1742       C  0.23390583  0.26225005  0.02478986    -0.39000
C1743       C  0.23456786  0.26141253  0.00419362     0.19800
C1744       C  0.25206314  0.26039706  0.99393020     0.22500
C1745       C  0.27030102  0.26063979  0.00348117    -0.39500
C1746       C  0.26963396  0.26169241  0.02403743     0.21300
N1747       N  0.25551927  0.26161578  0.05385034    -0.32800
C1748       C  0.27529166  0.26087384  0.05586510    -0.10400
C1749       C  0.28456249  0.26108478  0.03760901    -0.29200
N1750       N  0.24871948  0.25838783  0.97457614    -0.45800
C1751       C  0.22894337  0.25829724  0.97245883    -0.05100
C1752       C  0.21962336  0.26027387  0.99059478    -0.22400
H1753       H  0.22019389  0.26241660  0.03278780     0.19400
H1754       H  0.28400037  0.25959192  0.99552378     0.18200
H1755       H  0.30012436  0.25993282  0.03466465     0.14500
H1756       H  0.20401673  0.26008696  0.99350000     0.14300
H1757       H  0.24504628  0.26121564  0.06502640     0.32500
H1758       H  0.25922445  0.25677513  0.96353783     0.35200
C1759       C  0.20498339  0.35390706  0.86011596     0.20800
C1760       C  0.19170463  0.33913843  0.86574946    -0.39000
C1761       C  0.19785947  0.32691412  0.88122037     0.19800
C1762       C  0.21601988  0.32903693  0.89007564     0.22500
C1763       C  0.22907686  0.34402622  0.88474001    -0.39500
C1764       C  0.22277713  0.35643759  0.86957539     0.21300
N1765       N  0.20303423  0.36693168  0.84535220    -0.32800
C1766       C  0.21957043  0.37800004  0.84570778    -0.10400
C1767       C  0.23212794  0.37199974  0.86070516    -0.29200
N1768       N  0.21939940  0.31428468  0.90272699    -0.45800
C1769       C  0.20318079  0.30281945  0.90223516    -0.05100
C1770       C  0.18930783  0.31031372  0.88914094    -0.22400
H1771       H  0.17784787  0.33698873  0.85829836     0.19400
H1772       H  0.24333615  0.34559414  0.89155161     0.18200
H1773       H  0.24637067  0.37799638  0.86435283     0.14500
H1774       H  0.17565315  0.30353932  0.88469348     0.14300
H1775       H  0.19113975  0.36836944  0.83579204     0.32500
H1776       H  0.23235936  0.31158990  0.91045978     0.35200
C1777       C  0.33603637  0.35974800  0.79032336     0.20800
C1778       C  0.31549236  0.35857933  0.78893173    -0.39000
C1779       C  0.30514944  0.37580068  0.79364465     0.19800
C1780       C  0.31450639  0.39279978  0.79963916     0.22500
C1781       C  0.33506832  0.39405918  0.80069786    -0.39500
C1782       C  0.34543010  0.37692903  0.79569623     0.21300
N1783       N  0.34917703  0.34542941  0.78670747    -0.32800
C1784       C  0.36709784  0.35360852  0.78954525    -0.10400
C1785       C  0.36534207  0.37326984  0.79506451    -0.29200
N1786       N  0.30132980  0.40692590  0.80391392    -0.45800
C1787       C  0.28346421  0.39898599  0.80023441    -0.05100
C1788       C  0.28527302  0.37962164  0.79375088    -0.22400
H1789       H  0.30809707  0.34524076  0.78451348     0.19400
H1790       H  0.34246508  0.40739134  0.80512572     0.18200
H1791       H  0.37707147  0.38348034  0.79826269     0.14500
H1792       H  0.27356233  0.36956584  0.79002607     0.14300
H1793       H  0.34616309  0.33107099  0.78227916     0.32500
H1794       H  0.30429170  0.42111543  0.80888240     0.35200
C1795       C  0.24996412  0.28838748  0.53612533     0.20800
C1796       C  0.23157967  0.29047211  0.52696698    -0.39000
C1797       C  0.23145136  0.28838406  0.50641818     0.19800
C1798       C  0.24840336  0.28494285  0.49577752     0.22500
C1799       C  0.26672203  0.28277028  0.50491292    -0.39500
C1800       C  0.26677633  0.28446928  0.52543670     0.21300
N1801       N  0.25418659  0.29019123  0.55539143    -0.32800
C1802       C  0.27382405  0.28725169  0.55691440    -0.10400
C1803       C  0.28209564  0.28356679  0.53854074    -0.29200
N1804       N  0.24457313  0.28451908  0.47641152    -0.45800
C1805       C  0.22497357  0.28738415  0.47466875    -0.05100
C1806       C  0.21626933  0.28979835  0.49306734    -0.22400
H1807       H  0.21837724  0.29361728  0.53520163     0.19400
H1808       H  0.28000780  0.28012622  0.49663110     0.18200
H1809       H  0.29742878  0.28121907  0.53514445     0.14500
H1810       H  0.20102663  0.29296753  0.49617839     0.14300
H1811       H  0.24443055  0.29361464  0.56669718     0.32500
H1812       H  0.25469604  0.28266256  0.46505841     0.35200
C1813       C  0.35918026  0.32111760  0.67321002     0.20800
C1814       C  0.36666155  0.33492238  0.68658781    -0.39000
C1815       C  0.38138989  0.32803688  0.69929589     0.19800
C1816       C  0.38786207  0.30877901  0.69888371     0.22500
C1817       C  0.38069826  0.29512587  0.68526652    -0.39500
C1818       C  0.36626334  0.30209197  0.67238623     0.21300
N1819       N  0.34467410  0.32371971  0.66003896    -0.32800
C1820       C  0.34284789  0.30630353  0.65060525    -0.10400
C1821       C  0.35613762  0.29253205  0.65777403    -0.29200
N1822       N  0.39993769  0.30515829  0.71402358    -0.45800
C1823       C  0.40137062  0.32223254  0.72409486    -0.05100
C1824       C  0.39025353  0.33695661  0.71519276    -0.22400
H1825       H  0.36101845  0.34974303  0.68744494     0.19400
H1826       H  0.38559411  0.28001566  0.68509172     0.18200
H1827       H  0.35797955  0.27748866  0.65302634     0.14500
H1828       H  0.38734799  0.35152302  0.72081086     0.14300
H1829       H  0.33680258  0.33659427  0.65733894     0.32500
H1830       H  0.40575870  0.29155612  0.71805430     0.35200
C1831       C  0.16333167  0.23581972  0.84158307     0.20800
C1832       C  0.16281664  0.23896578  0.82125954    -0.39000
C1833       C  0.14587558  0.23237462  0.81162333     0.19800
C1834       C  0.13066484  0.22307914  0.82136053     0.22500
C1835       C  0.13102061  0.22026596  0.84179535    -0.39500
C1836       C  0.14788476  0.22712122  0.85150520     0.21300
N1837       N  0.17777612  0.24079478  0.85406138    -0.32800
C1838       C  0.17134835  0.23555775  0.87212033    -0.10400
C1839       C  0.15274381  0.22705556  0.87115637    -0.29200
N1840       N  0.11651637  0.21763701  0.80864235    -0.45800
C1841       C  0.12272442  0.22381622  0.79076912    -0.05100
C1842       C  0.14089343  0.23313353  0.79209832    -0.22400
H1843       H  0.17474302  0.24601824  0.81350322     0.19400
H1844       H  0.11907031  0.21326936  0.84955993     0.18200
H1845       H  0.14396215  0.22163010  0.88322273     0.14500
H1846       H  0.14949924  0.23927925  0.78024800     0.14300
H1847       H  0.19094672  0.24781931  0.85059599     0.32500
H1848       H  0.10348244  0.21027301  0.81189742     0.35200
C1849       C  0.16731070  0.16741495  0.70984396     0.20800
C1850       C  0.18175544  0.16212400  0.69605791    -0.39000
C1851       C  0.19475763  0.14716693  0.70191499     0.19800
C1852       C  0.19360877  0.13848058  0.72024810     0.22500
C1853       C  0.17899096  0.14349089  0.73383449    -0.39500
C1854       C  0.16583177  0.15812575  0.72785023     0.21300
N1855       N  0.15364068  0.18162894  0.70821096    -0.32800
C1856       C  0.14321365  0.18104215  0.72516181    -0.10400
C1857       C  0.15031753  0.16651398  0.73769100    -0.29200
N1858       N  0.20891983  0.12644335  0.72324884    -0.45800
C1859       C  0.21985229  0.12717215  0.70666789    -0.05100
C1860       C  0.21138237  0.13978391  0.69288740    -0.22400
H1861       H  0.18310411  0.16946568  0.68203745     0.19400
H1862       H  0.17822901  0.13682934  0.74823667     0.18200
H1863       H  0.14501913  0.16283049  0.75220439     0.14500
H1864       H  0.21756268  0.14439250  0.67900305     0.14300
H1865       H  0.15135452  0.19094285  0.69624946     0.32500
H1866       H  0.21237544  0.11907217  0.73624512     0.35200
C1867       C  0.29691725  0.18149068  0.65478207     0.20800
C1868       C  0.30283891  0.19019619  0.63699069    -0.39000
C1869       C  0.30127562  0.21076036  0.63608452     0.19800
C1870       C  0.29410544  0.22163351  0.65166093     0.22500
C1871       C  0.28863778  0.21300183  0.66953289    -0.39500
C1872       C  0.29040816  0.19254950  0.67051551     0.21300
N1873       N  0.29582856  0.16223279  0.65900719    -0.32800
C1874       C  0.28873345  0.16108073  0.67759430    -0.10400
C1875       C  0.28542101  0.17970238  0.68534287    -0.29200
N1876       N  0.29320276  0.24072283  0.64698108    -0.45800
C1877       C  0.30013715  0.24223832  0.62841083    -0.05100
C1878       C  0.30548596  0.22385126  0.62108796    -0.22400
H1879       H  0.30794840  0.18157827  0.62467361     0.19400
H1880       H  0.28305236  0.22157413  0.68167538     0.18200
H1881       H  0.27929980  0.18330833  0.69954258     0.14500
H1882       H  0.31139778  0.22051201  0.60673728     0.14300
H1883       H  0.29932683  0.15057171  0.64969944     0.32500
H1884       H  0.28842801  0.25214128  0.65602361     0.35200
C1885       C  0.76768698  0.28686210  0.99326858     0.20800
C1886       C  0.74957538  0.28720116  0.00300799    -0.39000
C1887       C  0.75047201  0.28837069  0.02352900     0.19800
C1888       C  0.76803984  0.28959096  0.03364925     0.22500
C1889       C  0.78621452  0.28927233  0.02387569    -0.39500
C1890       C  0.78532803  0.28763766  0.00331002     0.21300
N1891       N  0.77071232  0.28599672  0.97380045    -0.32800
C1892       C  0.79043472  0.28598284  0.97134274    -0.10400
C1893       C  0.80007212  0.28694767  0.98942387    -0.29200
N1894       N  0.76479958  0.29070024  0.05313440    -0.45800
C1895       C  0.74503270  0.28984610  0.05535684    -0.05100
C1896       C  0.73565142  0.28844465  0.03721953    -0.22400
H1897       H  0.73577677  0.28646296  0.99518059     0.19400
H1898       H  0.80000984  0.29009911  0.03169670     0.18200
H1899       H  0.81571441  0.28784498  0.99199690     0.14500
H1900       H  0.72003474  0.28772780  0.03443095     0.14300
H1901       H  0.76000918  0.28581807  0.96282792     0.32500
H1902       H  0.77533788  0.29178699  0.06420956     0.35200
C1903       C  0.98840356  0.27431429  0.75258862     0.20800
C1904       C  0.99689785  0.25557711  0.75429004    -0.39000
C1905       C  0.01752612  0.25497122  0.75390168     0.19800
C1906       C  0.02882102  0.27172519  0.75182741     0.22500
C1907       C  0.02033656  0.29045186  0.75044690    -0.39500
C1908       C  0.99975414  0.29107759  0.75099928     0.21300
N1909       N  0.96918296  0.27876838  0.75118913    -0.32800
C1910       C  0.96832633  0.29853706  0.74889419    -0.10400
C1911       C  0.98709493  0.30670505  0.74886464    -0.29200
N1912       N  0.04794543  0.26711186  0.75002091    -0.45800
C1913       C  0.04889366  0.24726586  0.75098045    -0.05100
C1914       C  0.03022570  0.23919737  0.75364052    -0.22400
H1915       H  0.98809920  0.24238887  0.75518267     0.19400
H1916       H  0.02910320  0.30353880  0.74844865     0.18200
H1917       H  0.99097644  0.32194566  0.74665297     0.14500
H1918       H  0.02635396  0.22380083  0.75409474     0.14300
H1919       H  0.95741652  0.26895601  0.75137182     0.32500
H1920       H  0.05953289  0.27680837  0.74747541     0.35200
C1921       C  0.86753970  0.31900747  0.85032090     0.20800
C1922       C  0.88495034  0.32666375  0.84230735    -0.39000
C1923       C  0.88647282  0.32574854  0.82177559     0.19800
C1924       C  0.87176976  0.31764615  0.81033680     0.22500
C1925       C  0.85424805  0.31045295  0.81827032    -0.39500
C1926       C  0.85267800  0.31150906  0.83867916     0.21300
N1927       N  0.86295959  0.31707270  0.86938794    -0.32800
C1928       C  0.84500008  0.30852760  0.86978432    -0.10400
C1929       C  0.83801639  0.30497545  0.85092857    -0.29200
N1930       N  0.87717332  0.31705865  0.79150213    -0.45800
C1931       C  0.89536476  0.32495808  0.79072184    -0.05100
C1932       C  0.90167558  0.33087674  0.80928674    -0.22400
H1933       H  0.89662618  0.33240855  0.85140566     0.19400
H1934       H  0.84288951  0.30401340  0.80922966     0.18200
H1935       H  0.82440672  0.29791871  0.84679037     0.14500
H1936       H  0.91567265  0.33726806  0.81318890     0.14300
H1937       H  0.87155906  0.32115659  0.88140043     0.32500
H1938       H  0.86900313  0.31143128  0.77981200     0.35200
C1939       C  0.80388400  0.21209059  0.88911085     0.20800
C1940       C  0.79213242  0.19550978  0.88606378    -0.39000
C1941       C  0.79735467  0.18368428  0.87009250     0.19800
C1942       C  0.81281187  0.18820898  0.85771709     0.22500
C1943       C  0.82478366  0.20469999  0.86093276    -0.39500
C1944       C  0.81983178  0.21632569  0.87725504     0.21300
N1945       N  0.80111105  0.22629793  0.90248676    -0.32800
C1946       C  0.81563244  0.23949038  0.89946263    -0.10400
C1947       C  0.82766245  0.23378503  0.88390058    -0.29200
N1948       N  0.81398180  0.17509710  0.84296057    -0.45800
C1949       C  0.79936211  0.16201995  0.84629844    -0.05100
C1950       C  0.78878353  0.16684651  0.86310031    -0.22400
H1951       H  0.77962071  0.19222512  0.89527066     0.19400
H1952       H  0.83683524  0.20838889  0.85127766     0.18200
H1953       H  0.83955828  0.24205276  0.87739774     0.14500
H1954       H  0.77616822  0.15929107  0.86909504     0.14300
H1955       H  0.78959147  0.22738334  0.91253342     0.32500
H1956       H  0.82407502  0.17499239  0.83143310     0.35200
C1957       C  0.76723278  0.26229811  0.53576412     0.20800
C1958       C  0.78556962  0.26096130  0.52649062    -0.39000
C1959       C  0.78515895  0.26077756  0.50589959     0.19800
C1960       C  0.76778667  0.26161674  0.49539393     0.22500
C1961       C  0.74948619  0.26310789  0.50464838    -0.39500
C1962       C  0.74991881  0.26353234  0.52519861     0.21300
N1963       N  0.76354131  0.26147120  0.55512583    -0.32800
C1964       C  0.74375079  0.26226726  0.55683236    -0.10400
C1965       C  0.73476715  0.26375232  0.53851172    -0.29200
N1966       N  0.77122480  0.26000857  0.47606445    -0.45800
C1967       C  0.79093519  0.25827365  0.47420481    -0.05100
C1968       C  0.80016338  0.25879533  0.49248017    -0.22400
H1969       H  0.79910941  0.25970261  0.53469516     0.19400
H1970       H  0.73588125  0.26345698  0.49646018     0.18200
H1971       H  0.71920817  0.26383489  0.53532903     0.14500
H1972       H  0.81565448  0.25715433  0.49555860     0.14300
H1973       H  0.77377583  0.25976435  0.56641016     0.32500
H1974       H  0.76077634  0.25969289  0.46485154     0.35200
C1975       C  0.81137512  0.38983505  0.72161835     0.20800
C1976       C  0.81936406  0.37128795  0.72555970    -0.39000
C1977       C  0.83986305  0.37015984  0.72530659     0.19800
C1978       C  0.85157799  0.38637803  0.72184049     0.22500
C1979       C  0.84353153  0.40495951  0.71759725    -0.39500
C1980       C  0.82290662  0.40601158  0.71740226     0.21300
N1981       N  0.79232015  0.39459936  0.72117348    -0.32800
C1982       C  0.79148006  0.41384465  0.71628309    -0.10400
C1983       C  0.81028077  0.42156364  0.71365069    -0.29200
N1984       N  0.87067704  0.38144833  0.72304990    -0.45800
C1985       C  0.87102861  0.36190229  0.72691393    -0.05100
C1986       C  0.85209022  0.35436004  0.72838625    -0.22400
H1987       H  0.81025306  0.35863637  0.72858303     0.19400
H1988       H  0.85264215  0.41761916  0.71463333     0.18200
H1989       H  0.81416724  0.43650271  0.70993415     0.14500
H1990       H  0.84785906  0.33941345  0.73170206     0.14300
H1991       H  0.78047964  0.38523111  0.72382473     0.32500
H1992       H  0.88272140  0.39074937  0.72126825     0.35200
C1993       C  0.72377551  0.36668939  0.65481951     0.20800
C1994       C  0.71819522  0.35792742  0.63694884    -0.39000
C1995       C  0.72070604  0.33745510  0.63586208     0.19800
C1996       C  0.72866396  0.32680025  0.65123534     0.22500
C1997       C  0.73387704  0.33546057  0.66910406    -0.39500
C1998       C  0.73090666  0.35570997  0.67036072     0.21300
N1999       N  0.72298506  0.38582014  0.65970699    -0.32800
C2000       C  0.72925275  0.38678328  0.67859909    -0.10400
C2001       C  0.73422144  0.36831883  0.68573762    -0.29200
N2002       N  0.72963741  0.30770431  0.64675542    -0.45800
C2003       C  0.72179391  0.30591934  0.62860771    -0.05100
C2004       C  0.71600011  0.32415500  0.62122663    -0.22400
H2005       H  0.71216723  0.36636373  0.62491238     0.19400
H2006       H  0.73964634  0.32698526  0.68124286     0.18200
H2007       H  0.73999261  0.36470588  0.70009243     0.14500
H2008       H  0.70914944  0.32720917  0.60722646     0.14300
H2009       H  0.71838505  0.39745510  0.65084402     0.32500
H2010       H  0.73465786  0.29640165  0.65582802     0.35200
C2011       C  0.50135518  0.29401626  0.76943753     0.20800
C2012       C  0.52177622  0.29655832  0.77090927    -0.39000
C2013       C  0.53307624  0.27932426  0.77029061     0.19800
C2014       C  0.52466552  0.26098089  0.76804995     0.22500
C2015       C  0.50424093  0.25842737  0.76665831    -0.39500
C2016       C  0.49292287  0.27563482  0.76761622     0.21300
N2017       N  0.48743344  0.30791687  0.77108305    -0.32800
C2018       C  0.46998879  0.29834093  0.77069878    -0.10400
C2019       C  0.47281534  0.27816615  0.76845052    -0.29200
N2020       N  0.53841354  0.24686303  0.76914259    -0.45800
C2021       C  0.55568951  0.25619656  0.77242786    -0.05100
C2022       C  0.55296524  0.27649516  0.77311015    -0.22400
H2023       H  0.52833221  0.31084893  0.77312673     0.19400
H2024       H  0.49761321  0.24403066  0.76567840     0.18200
H2025       H  0.46169550  0.26683885  0.76813972     0.14500
H2026       H  0.56389344  0.28759849  0.77616534     0.14300
H2027       H  0.48967723  0.32292027  0.77326876     0.32500
H2028       H  0.53603656  0.23172685  0.76869390     0.35200
C2029       C  0.64022421  0.22783400  0.70388289     0.20800
C2030       C  0.64118239  0.22460504  0.68351195    -0.39000
C2031       C  0.65874474  0.23047042  0.67436079     0.19800
C2032       C  0.67429528  0.23833570  0.68483381     0.22500
C2033       C  0.67321770  0.24180734  0.70500386    -0.39500
C2034       C  0.65557034  0.23651537  0.71397782     0.21300
N2035       N  0.62510514  0.22410785  0.71610679    -0.32800
C2036       C  0.63091379  0.23100086  0.73386103    -0.10400
C2037       C  0.64973312  0.23882176  0.73304561    -0.29200
N2038       N  0.68913708  0.24318442  0.67288001    -0.45800
C2039       C  0.68284456  0.23897370  0.65456249    -0.05100
C2040       C  0.66399694  0.23094693  0.65479990    -0.22400
H2041       H  0.62902596  0.21847433  0.67534227     0.19400
H2042       H  0.68509786  0.24860488  0.71305687     0.18200
H2043       H  0.65812427  0.24514682  0.74495824     0.14500
H2044       H  0.65520331  0.22653219  0.64233483     0.14300
H2045       H  0.61165608  0.21767847  0.71257157     0.32500
H2046       H  0.70233386  0.24991114  0.67681725     0.35200
C2047       C  0.68410346  0.18875406  0.80298743     0.20800
C2048       C  0.70449519  0.18800804  0.80043808    -0.39000
C2049       C  0.71340534  0.17001516  0.80494490     0.19800
C2050       C  0.70296647  0.15406985  0.81199170     0.22500
C2051       C  0.68250121  0.15475439  0.81434425    -0.39500
C2052       C  0.67348808  0.17262774  0.80933020     0.21300
N2053       N  0.67208813  0.20373913  0.79846740    -0.32800
C2054       C  0.65365289  0.19696338  0.80146900    -0.10400
C2055       C  0.65391175  0.17764952  0.80829030    -0.29200
N2056       N  0.71493469  0.13858826  0.81491170    -0.45800
C2057       C  0.73297052  0.14468510  0.80917932    -0.05100
C2058       C  0.73258150  0.16416296  0.80293375    -0.22400
H2059       H  0.71274465  0.20034553  0.79478418     0.19400
H2060       H  0.67414608  0.14213217  0.81913970     0.18200
H2061       H  0.64143359  0.16835931  0.81145715     0.14500
H2062       H  0.74475957  0.17286889  0.79763263     0.14300
H2063       H  0.67610576  0.21735703  0.79268478     0.32500
H2064       H  0.71102435  0.12465899  0.81997032     0.35200
C2065       C  0.24446524  0.02020211  0.23808217     0.20800
C2066       C  0.24288268  0.04078163  0.23610732    -0.39000
C2067       C  0.23974402  0.05138712  0.25362080     0.19800
C2068       C  0.23851416  0.04209895  0.27163373     0.22500
C2069       C  0.23996479  0.02164014  0.27358209    -0.39500
C2070       C  0.24291819  0.01109999  0.25616175     0.21300
N2071       N  0.24627752  0.00668575  0.22370024    -0.32800
C2072       C  0.24561713  0.98888058  0.23271620    -0.10400
C2073       C  0.24364294  0.99112965  0.25297390    -0.29200
N2074       N  0.23538220  0.05516973  0.28604184    -0.45800
C2075       C  0.23439364  0.07305704  0.27735893    -0.05100
C2076       C  0.23700283  0.07132191  0.25703929    -0.22400
H2077       H  0.24366113  0.04795852  0.22195979     0.19400
H2078       H  0.23852596  0.01440489  0.28765117     0.18200
H2079       H  0.24201187  0.97965353  0.26383720     0.14500
H2080       H  0.23698707  0.08300985  0.24628539     0.14300
H2081       H  0.24691715  0.00937291  0.20862381     0.32500
H2082       H  0.23378766  0.05205783  0.30096922     0.35200
C2083       C  0.48769869  0.77551665  0.24672998     0.20800
C2084       C  0.49682930  0.75704304  0.24684743    -0.39000
C2085       C  0.51744207  0.75718718  0.24704331     0.19800
C2086       C  0.52823111  0.77438861  0.24680108     0.22500
C2087       C  0.51908891  0.79289375  0.24681646    -0.39500
C2088       C  0.49844426  0.79274947  0.24693659     0.21300
N2089       N  0.46831442  0.77932818  0.24595087    -0.32800
C2090       C  0.46666991  0.79915552  0.24584009    -0.10400
C2091       C  0.48515348  0.80801107  0.24654095    -0.29200
N2092       N  0.54762640  0.77047318  0.24614369    -0.45800
C2093       C  0.54916269  0.75061381  0.24619093    -0.05100
C2094       C  0.53063767  0.74188154  0.24681334    -0.22400
H2095       H  0.48849846  0.74352776  0.24661490     0.19400
H2096       H  0.52741945  0.80640869  0.24656089     0.18200
H2097       H  0.48843231  0.82354561  0.24612441     0.14500
H2098       H  0.52726711  0.72636508  0.24647323     0.14300
H2099       H  0.45693552  0.76909332  0.24522429     0.32500
H2100       H  0.55906541  0.78064067  0.24542970     0.35200
C2101       C  0.34439737  0.87585132  0.21191806     0.20800
C2102       C  0.33000524  0.88150316  0.19824502    -0.39000
C2103       C  0.31800962  0.89732910  0.20385431     0.19800
C2104       C  0.31992313  0.90644401  0.22190590     0.22500
C2105       C  0.33444285  0.90098186  0.23542953    -0.39500
C2106       C  0.34669896  0.88552264  0.22963090     0.21300
N2107       N  0.35770832  0.86134717  0.21013612    -0.32800
C2108       C  0.36877241  0.86215640  0.22665742    -0.10400
C2109       C  0.36237972  0.87704864  0.23911985    -0.29200
N2110       N  0.30552475  0.91962067  0.22462553    -0.45800
C2111       C  0.29449325  0.91918566  0.20809648    -0.05100
C2112       C  0.30191469  0.90558547  0.19469796    -0.22400
H2113       H  0.32812747  0.87399119  0.18438212     0.19400
H2114       H  0.33594963  0.90811087  0.24953978     0.18200
H2115       H  0.36850540  0.88118735  0.25317794     0.14500
H2116       H  0.29529867  0.90098603  0.18101080     0.14300
H2117       H  0.35959551  0.85195015  0.19818008     0.32500
H2118       H  0.30266376  0.92757221  0.23741175     0.35200
C2119       C  0.36588800  0.81745433  0.35045973     0.20800
C2120       C  0.38367077  0.82377041  0.34214403    -0.39000
C2121       C  0.38530135  0.82152587  0.32173922     0.19800
C2122       C  0.37045821  0.81321119  0.31065683     0.22500
C2123       C  0.35259371  0.80714624  0.31891134    -0.39500
C2124       C  0.35081891  0.80976423  0.33922358     0.21300
N2125       N  0.36095392  0.81750009  0.36952859    -0.32800
C2126       C  0.34254603  0.81003698  0.37042510    -0.10400
C2127       C  0.33562204  0.80517523  0.35179671    -0.29200
N2128       N  0.37558067  0.81249164  0.29169497    -0.45800
C2129       C  0.39363710  0.82074038  0.29050385    -0.05100
C2130       C  0.40024967  0.82663004  0.30896391    -0.22400
H2131       H  0.39535054  0.82998864  0.35091924     0.19400
H2132       H  0.34093988  0.80085739  0.31014605     0.18200
H2133       H  0.32174865  0.79840285  0.34808360     0.14500
H2134       H  0.41399657  0.83372548  0.31252023     0.14300
H2135       H  0.36968043  0.82205718  0.38127642     0.32500
H2136       H  0.36703596  0.80720896  0.28011447     0.35200
C2137       C  0.22595737  0.82579334  0.14932658     0.20800
C2138       C  0.23287961  0.83469370  0.16657415    -0.39000
C2139       C  0.22975430  0.85497593  0.16809997     0.19800
C2140       C  0.22071676  0.86568209  0.15339367     0.22500
C2141       C  0.21339143  0.85667593  0.13626667    -0.39500
C2142       C  0.21624939  0.83624865  0.13487080     0.21300
N2143       N  0.22731123  0.80675983  0.14443629    -0.32800
C2144       C  0.21812513  0.80480259  0.12689023    -0.10400
C2145       C  0.21089259  0.82290475  0.12044286    -0.29200
N2146       N  0.22041285  0.88490240  0.15804135    -0.45800
C2147       C  0.22901898  0.88634969  0.17596429    -0.05100
C2148       C  0.23489784  0.86796235  0.18276167    -0.22400
H2149       H  0.24026754  0.82642060  0.17794973     0.19400
H2150       H  0.20610501  0.86496876  0.12484354     0.18200
H2151       H  0.20289905  0.82589419  0.10704905     0.14500
H2152       H  0.24246134  0.86464332  0.19633161     0.14300
H2153       H  0.23374391  0.79561837  0.15278410     0.32500
H2154       H  0.21471305  0.89633989  0.14956935     0.35200
C2155       C  0.27147185  0.54701808  0.26190602     0.20800
C2156       C  0.27189469  0.53699275  0.24384364    -0.39000
C2157       C  0.26951026  0.51647091  0.24480534     0.19800
C2158       C  0.26726986  0.50662434  0.26242948     0.22500
C2159       C  0.26674305  0.51664299  0.28044865    -0.39500
C2160       C  0.26878083  0.53715795  0.27945515     0.21300
N2161       N  0.27381789  0.56644890  0.26506774    -0.32800
C2162       C  0.27242755  0.56897862  0.28478739    -0.10400
C2163       C  0.26923678  0.55101733  0.29417659    -0.29200
N2164       N  0.26618253  0.48708169  0.25948832    -0.45800
C2165       C  0.26745337  0.48440900  0.23979927    -0.05100
C2166       C  0.26948832  0.50243273  0.23017065    -0.22400
H2167       H  0.27404697  0.54458508  0.23005940     0.19400
H2168       H  0.26502454  0.50900749  0.29427136     0.18200
H2169       H  0.26800116  0.54838070  0.30979224     0.14500
H2170       H  0.27142492  0.50486583  0.21459519     0.14300
H2171       H  0.27649317  0.57724797  0.25452404     0.32500
H2172       H  0.26491754  0.47621335  0.27022564     0.35200
C2173       C  0.31081761  0.69210986  0.35888191     0.20800
C2174       C  0.32231115  0.70904987  0.36146123    -0.39000
C2175       C  0.31852755  0.71992905  0.37859277     0.19800
C2176       C  0.30416471  0.71451642  0.39191192     0.22500
C2177       C  0.29295740  0.69746284  0.38950056    -0.39500
C2178       C  0.29694269  0.68647072  0.37259918     0.21300
N2179       N  0.31093434  0.67960289  0.34355116    -0.32800
C2180       C  0.29719035  0.66583357  0.34779283    -0.10400
C2181       C  0.28829148  0.66959215  0.36580553    -0.29200
N2182       N  0.30188728  0.72833256  0.40579019    -0.45800
C2183       C  0.31512366  0.74249156  0.40152202    -0.05100
C2184       C  0.32584860  0.73777176  0.38473670    -0.22400
H2185       H  0.33302678  0.71369364  0.35070359     0.19400
H2186       H  0.28158807  0.69331701  0.39977998     0.18200
H2187       H  0.27675879  0.66123534  0.37282769     0.14500
H2188       H  0.33634340  0.74695439  0.37713600     0.14300
H2189       H  0.31984320  0.68029856  0.33110389     0.32500
H2190       H  0.29129482  0.72862837  0.41686059     0.35200
C2191       C  0.02755662  0.77361874  0.27130240     0.20800
C2192       C  0.01764134  0.79171474  0.27152064    -0.39000
C2193       C  0.99706008  0.79071303  0.27055354     0.19800
C2194       C  0.98711868  0.77302653  0.26962200     0.22500
C2195       C  0.99703877  0.75496806  0.26910251    -0.39500
C2196       C  0.01759813  0.75597604  0.26990994     0.21300
N2197       N  0.04697543  0.77051355  0.27328375    -0.32800
C2198       C  0.04939821  0.75075146  0.27299579    -0.10400
C2199       C  0.03141072  0.74121811  0.27077821    -0.29200
N2200       N  0.96760608  0.77592608  0.27047031    -0.45800
C2201       C  0.96505178  0.79560902  0.27185445    -0.05100
C2202       C  0.98309047  0.80533958  0.27173211    -0.22400
H2203       H  0.02534775  0.80552766  0.27291254     0.19400
H2204       H  0.98929574  0.74111185  0.26867668     0.18200
H2205       H  0.02872984  0.72556456  0.27066542     0.14500
H2206       H  0.98565132  0.82093053  0.27333463     0.14300
H2207       H  0.05784977  0.78114489  0.27515384     0.32500
H2208       H  0.95671611  0.76514844  0.27067961     0.35200
C2209       C  0.15282604  0.73395081  0.17066057     0.20800
C2210       C  0.13435260  0.72845380  0.17817568    -0.39000
C2211       C  0.13233465  0.72955712  0.19871301     0.19800
C2212       C  0.14747739  0.73611612  0.21055604     0.22500
C2213       C  0.16593234  0.74118141  0.20313280    -0.39500
C2214       C  0.16807004  0.73964743  0.18280744     0.21300
N2215       N  0.15851532  0.73463670  0.15175197    -0.32800
C2216       C  0.17757808  0.74042251  0.15205259    -0.10400
C2217       C  0.18406762  0.74355224  0.17114896    -0.29200
N2218       N  0.14196883  0.73646404  0.22937829    -0.45800
C2219       C  0.12333302  0.72968159  0.22984739    -0.05100
C2220       C  0.11670588  0.72505741  0.21098876    -0.22400
H2221       H  0.12248409  0.72369752  0.16876138     0.19400
H2222       H  0.17778510  0.74599998  0.21254122     0.18200
H2223       H  0.19838310  0.74860157  0.17580975     0.14500
H2224       H  0.10245821  0.71941988  0.20684134     0.14300
H2225       H  0.15002028  0.73135740  0.13942360     0.32500
H2226       H  0.15057189  0.74066659  0.24135529     0.35200
C2227       C  0.17039754  0.67071092  0.30378610     0.20800
C2228       C  0.17888201  0.65322751  0.31079578    -0.39000
C2229       C  0.19942606  0.65204841  0.30942719     0.19800
C2230       C  0.21051358  0.66707534  0.30143985     0.22500
C2231       C  0.20211186  0.68470351  0.29492772    -0.39500
C2232       C  0.18166632  0.68596893  0.29652083     0.21300
N2233       N  0.15119810  0.67517158  0.30264766    -0.32800
C2234       C  0.15033141  0.69351963  0.29495913    -0.10400
C2235       C  0.16902946  0.70078937  0.29106929    -0.29200
N2236       N  0.22950833  0.66203003  0.30067673    -0.45800
C2237       C  0.23069551  0.64376634  0.30844915    -0.05100
C2238       C  0.21225654  0.63706853  0.31432673    -0.22400
H2239       H  0.17011804  0.64130902  0.31656300     0.19400
H2240       H  0.21083856  0.69644945  0.28875599     0.18200
H2241       H  0.17280547  0.71478331  0.28457063     0.14500
H2242       H  0.20868429  0.62301636  0.32080470     0.14300
H2243       H  0.13941205  0.66633439  0.30686445     0.32500
H2244       H  0.24103975  0.67055176  0.29526102     0.35200
C2245       C  0.27167888  0.99454032  0.75183398     0.20800
C2246       C  0.27114399  0.00454982  0.73371540    -0.39000
C2247       C  0.26912115  0.02513905  0.73477126     0.19800
C2248       C  0.26798948  0.03494915  0.75251624     0.22500
C2249       C  0.26834106  0.02497606  0.77051807    -0.39500
C2250       C  0.27010142  0.00449527  0.76945394     0.21300
N2251       N  0.27418501  0.97510699  0.75502852    -0.32800
C2252       C  0.27400818  0.97278878  0.77484504    -0.10400
C2253       C  0.27139945  0.99080207  0.78422050    -0.29200
N2254       N  0.26736545  0.05448990  0.74974889    -0.45800
C2255       C  0.26792769  0.05732327  0.73007288    -0.05100
C2256       C  0.26890742  0.03932637  0.72020675    -0.22400
H2257       H  0.27251618  0.99693155  0.71985306     0.19400
H2258       H  0.26761448  0.03264987  0.78440141     0.18200
H2259       H  0.27106695  0.99358048  0.79985540     0.14500
H2260       H  0.27024760  0.03699575  0.70455606     0.14300
H2261       H  0.27610301  0.96418567  0.74445575     0.32500
H2262       H  0.26710333  0.06528267  0.76062562     0.35200
C2263       C  0.17935642  0.85943667  0.78827028     0.20800
C2264       C  0.19934135  0.85998249  0.78349465    -0.39000
C2265       C  0.20940519  0.87700516  0.78912291     0.19800
C2266       C  0.20039538  0.89225822  0.79905919     0.22500
C2267       C  0.18024715  0.89190189  0.80347222    -0.39500
C2268       C  0.17008110  0.87494614  0.79755541     0.21300
N2269       N  0.16662191  0.84487491  0.78447499    -0.32800
C2270       C  0.14900019  0.85127304  0.79102373    -0.10400
C2271       C  0.15051972  0.86999841  0.79921210    -0.29200
N2272       N  0.21356407  0.90623359  0.80378369    -0.45800
C2273       C  0.23096483  0.89986484  0.79651610    -0.05100
C2274       C  0.22888445  0.88180233  0.78715505    -0.22400
H2275       H  0.20657067  0.84796028  0.77605407     0.19400
H2276       H  0.17304973  0.90386098  0.81104161     0.18200
H2277       H  0.13885336  0.87883070  0.80537699     0.14500
H2278       H  0.24030447  0.87295839  0.78055590     0.14300
H2279       H  0.16958669  0.83167659  0.77726997     0.32500
H2280       H  0.21096200  0.91910299  0.81168394     0.35200
C2281       C  0.28061834  0.75789930  0.00087020     0.20800
C2282       C  0.28291202  0.75794401  0.02143134    -0.39000
C2283       C  0.26545990  0.75875750  0.03246339     0.19800
C2284       C  0.24721513  0.75968544  0.02359998     0.22500
C2285       C  0.24492600  0.75939308  0.00312795    -0.39500
C2286       C  0.26229052  0.75837796  0.99215149     0.21300
N2287       N  0.29476036  0.75654256  0.98711534    -0.32800
C2288       C  0.28531660  0.75588809  0.96956043    -0.10400
C2289       C  0.26505561  0.75699532  0.97214922    -0.29200
N2290       N  0.23289619  0.75990796  0.03712942    -0.45800
C2291       C  0.24191439  0.75883858  0.05483898    -0.05100
C2292       C  0.26229303  0.75808729  0.05255313    -0.22400
H2293       H  0.29719259  0.75706178  0.02831988     0.19400
H2294       H  0.23061554  0.75959638  0.99624530     0.18200
H2295       H  0.25384004  0.75648223  0.96091616     0.14500
H2296       H  0.27324272  0.75676175  0.06397913     0.14300
H2297       H  0.30985464  0.75548795  0.98953959     0.32500
H2298       H  0.21780814  0.76004479  0.03443994     0.35200
C2299       C  0.30852555  0.85349172  0.85706763     0.20800
C2300       C  0.32227488  0.84133047  0.86661864    -0.39000
C2301       C  0.31450372  0.82761139  0.88000191     0.19800
C2302       C  0.29454645  0.82606699  0.88337441     0.22500
C2303       C  0.28087381  0.83837071  0.87408483    -0.39500
C2304       C  0.28864182  0.85216721  0.86093322     0.21300
N2305       N  0.31205033  0.86762729  0.84364363    -0.32800
C2306       C  0.29428763  0.87548743  0.83921378    -0.10400
C2307       C  0.27938614  0.86628014  0.84977093    -0.29200
N2308       N  0.29062613  0.81062974  0.89498892    -0.45800
C2309       C  0.30813644  0.80215001  0.89917099    -0.05100
C2310       C  0.32346279  0.81253506  0.89033049    -0.22400
H2311       H  0.33782431  0.84219647  0.86354559     0.19400
H2312       H  0.26525820  0.83703638  0.87662847     0.18200
H2313       H  0.26387486  0.86967316  0.84949161     0.14500
H2314       H  0.33880358  0.80846771  0.88989755     0.14300
H2315       H  0.32570452  0.87212183  0.83834604     0.32500
H2316       H  0.27673234  0.80538473  0.89877331     0.35200
C2317       C  0.36372686  0.72592657  0.84781335     0.20800
C2318       C  0.38168706  0.71973809  0.83975154    -0.39000
C2319       C  0.38310377  0.72079902  0.81922155     0.19800
C2320       C  0.36782106  0.72773831  0.80777393     0.22500
C2321       C  0.34976342  0.73349759  0.81577144    -0.39500
C2322       C  0.34828168  0.73223809  0.83622136     0.21300
N2323       N  0.35903318  0.72733137  0.86690379    -0.32800
C2324       C  0.34042315  0.73436739  0.86744169    -0.10400
C2325       C  0.33313029  0.73743939  0.84858292    -0.29200
N2326       N  0.37306739  0.72836501  0.78885296    -0.45800
C2327       C  0.39171270  0.72154111  0.78806866    -0.05100
C2328       C  0.39851257  0.71646632  0.80671239    -0.22400
H2329       H  0.39376861  0.71482391  0.84881653     0.19400
H2330       H  0.33787331  0.73893217  0.80674596     0.18200
H2331       H  0.31897815  0.74339013  0.84451409     0.14500
H2332       H  0.41284887  0.71085954  0.81060922     0.14300
H2333       H  0.36800576  0.72392405  0.87885969     0.32500
H2334       H  0.36442089  0.73308097  0.77709696     0.35200
C2335       C  0.24338978  0.53395304  0.75316623     0.20800
C2336       C  0.24229767  0.52450420  0.77140631    -0.39000
C2337       C  0.24148740  0.50395517  0.77088579     0.19800
C2338       C  0.24141597  0.49341619  0.75353927     0.22500
C2339       C  0.24263354  0.50292406  0.73516347    -0.39500
C2340       C  0.24374767  0.52362149  0.73568857     0.21300
N2341       N  0.24381454  0.55340682  0.74988727    -0.32800
C2342       C  0.24461948  0.55571492  0.73015625    -0.10400
C2343       C  0.24466862  0.53742912  0.72075485    -0.29200
N2344       N  0.23993780  0.47395344  0.75724937    -0.45800
C2345       C  0.23935118  0.47224481  0.77712934    -0.05100
C2346       C  0.24031294  0.49066152  0.78600605    -0.22400
H2347       H  0.24200467  0.53259592  0.78506687     0.19400
H2348       H  0.24259763  0.49484678  0.72149493     0.18200
H2349       H  0.24467751  0.53464565  0.70512121     0.14500
H2350       H  0.23982746  0.49391724  0.80154474     0.14300
H2351       H  0.24323240  0.56448490  0.76046119     0.32500
H2352       H  0.23937173  0.46260646  0.74697069     0.35200
C2353       C  0.32205157  0.63682731  0.71690216     0.20800
C2354       C  0.33839028  0.64038150  0.72894863    -0.39000
C2355       C  0.35008658  0.65653442  0.72377106     0.19800
C2356       C  0.34566773  0.66858118  0.70802660     0.22500
C2357       C  0.32946885  0.66482361  0.69572448    -0.39500
C2358       C  0.31796282  0.64835400  0.70067687     0.21300
N2359       N  0.30783610  0.62340268  0.71974080    -0.32800
C2360       C  0.29474165  0.62601124  0.70499894    -0.10400
C2361       C  0.30060051  0.64140849  0.69274833    -0.29200
N2362       N  0.35848547  0.68365704  0.70699776    -0.45800
C2363       C  0.37131908  0.68093968  0.72201696    -0.05100
C2364       C  0.36659468  0.66410547  0.73267531    -0.22400
H2365       H  0.34152971  0.63146492  0.74171647     0.19400
H2366       H  0.32583054  0.67426607  0.68347689     0.18200
H2367       H  0.29238547  0.64775117  0.68071678     0.14500
H2368       H  0.37400386  0.65843454  0.74553368     0.14300
H2369       H  0.30660150  0.61368846  0.73153718     0.32500
H2370       H  0.35857684  0.69500621  0.69669197     0.35200
C2371       C  0.26461794  0.78529802  0.53440449     0.20800
C2372       C  0.28284228  0.78827446  0.52518083    -0.39000
C2373       C  0.28307926  0.78582039  0.50467780     0.19800
C2374       C  0.26637605  0.78099059  0.49417562     0.22500
C2375       C  0.24825322  0.77778671  0.50340332    -0.39500
C2376       C  0.24805752  0.78009458  0.52386632     0.21300
N2377       N  0.26020259  0.78786814  0.55351877    -0.32800
C2378       C  0.24069320  0.78423255  0.55512322    -0.10400
C2379       C  0.23268175  0.77922709  0.53694249    -0.29200
N2380       N  0.27000408  0.78114336  0.47477508    -0.45800
C2381       C  0.28919519  0.78595129  0.47283467    -0.05100
C2382       C  0.29791688  0.78877970  0.49117896    -0.22400
H2383       H  0.29575374  0.79270658  0.53329056     0.19400
H2384       H  0.23511398  0.77433579  0.49517940     0.18200
H2385       H  0.21746204  0.77616627  0.53360286     0.14500
H2386       H  0.31279086  0.79346566  0.49416008     0.14300
H2387       H  0.26972063  0.79238630  0.56464677     0.32500
H2388       H  0.25990827  0.77868143  0.46350770     0.35200
C2389       C  0.22768602  0.71982082  0.64921305     0.20800
C2390       C  0.23420255  0.71103674  0.66666467    -0.39000
C2391       C  0.23146515  0.69069769  0.66794154     0.19800
C2392       C  0.22321406  0.67993410  0.65281416     0.22500
C2393       C  0.21644508  0.68876533  0.63548235    -0.39500
C2394       C  0.21886512  0.70915225  0.63434631     0.21300
N2395       N  0.22819997  0.73894716  0.64462459    -0.32800
C2396       C  0.21933741  0.74053278  0.62689213    -0.10400
C2397       C  0.21327723  0.72227473  0.61997217    -0.29200
N2398       N  0.22266730  0.66079899  0.65742005    -0.45800
C2399       C  0.23030154  0.65941118  0.67572304    -0.05100
C2400       C  0.23591208  0.67774274  0.68284394    -0.22400
H2401       H  0.24076819  0.71944261  0.67842995     0.19400
H2402       H  0.20965649  0.68039609  0.62382012     0.18200
H2403       H  0.20559898  0.71909422  0.60643962     0.14500
H2404       H  0.24270815  0.68105032  0.69681285     0.14300
H2405       H  0.23364585  0.75033044  0.65332459     0.32500
H2406       H  0.21734729  0.64937551  0.64869800     0.35200
C2407       C  0.15911978  0.81783292  0.67447313     0.20800
C2408       C  0.15325405  0.83121474  0.68905435    -0.39000
C2409       C  0.13790764  0.82495424  0.70135666     0.19800
C2410       C  0.12940308  0.80660129  0.69949378     0.22500
C2411       C  0.13500126  0.79341200  0.68471865    -0.39500
C2412       C  0.15002109  0.79981851  0.67221304     0.21300
N2413       N  0.17362803  0.81999726  0.66122301    -0.32800
C2414       C  0.17342475  0.80339516  0.65024588    -0.10400
C2415       C  0.15886137  0.79052848  0.65660396    -0.29200
N2416       N  0.11681966  0.80320702  0.71428212    -0.45800
C2417       C  0.11701739  0.81958820  0.72553210    -0.05100
C2418       C  0.12983562  0.83359693  0.71783153    -0.22400
H2419       H  0.16040066  0.84526414  0.69096652     0.19400
H2420       H  0.12843263  0.77902162  0.68332856     0.18200
H2421       H  0.15535437  0.77621628  0.65068506     0.14500
H2422       H  0.13408927  0.84739190  0.72444779     0.14300
H2423       H  0.18281238  0.83213863  0.65947669     0.32500
H2424       H  0.10939694  0.79011661  0.71719369     0.35200
C2425       C  0.76042045  0.00815574  0.75647405     0.20800
C2426       C  0.76055082  0.01750323  0.77476825    -0.39000
C2427       C  0.76262813  0.03794597  0.77434548     0.19800
C2428       C  0.76454004  0.04842878  0.75704686     0.22500
C2429       C  0.76408448  0.03907010  0.73864253    -0.39500
C2430       C  0.76192016  0.01852483  0.73905488     0.21300
N2431       N  0.76058152  0.98873155  0.75314559    -0.32800
C2432       C  0.76218545  0.98660512  0.73346123    -0.10400
C2433       C  0.76277402  0.00485671  0.72411229    -0.29200
N2434       N  0.76812311  0.06753297  0.76084486    -0.45800
C2435       C  0.76840388  0.06908815  0.78070647    -0.05100
C2436       C  0.76486336  0.05097254  0.78954041    -0.22400
H2437       H  0.75990668  0.00936297  0.78839658     0.19400
H2438       H  0.76607542  0.04707270  0.72506708     0.18200
H2439       H  0.76489201  0.00770453  0.70863096     0.14500
H2440       H  0.76495008  0.04759608  0.80506472     0.14300
H2441       H  0.76048992  0.97759901  0.76368956     0.32500
H2442       H  0.77086599  0.07862984  0.75063285     0.35200
C2443       C  0.76223438  0.76422389  0.52773677     0.20800
C2444       C  0.76470215  0.76548635  0.50736243    -0.39000
C2445       C  0.74743305  0.76510308  0.49625666     0.19800
C2446       C  0.72904584  0.76393714  0.50480487     0.22500
C2447       C  0.72658141  0.76261046  0.52524687    -0.39500
C2448       C  0.74392347  0.76262661  0.53637434     0.21300
N2449       N  0.77643935  0.76279459  0.54125342    -0.32800
C2450       C  0.76722417  0.75994545  0.55863068    -0.10400
C2451       C  0.74689019  0.75984435  0.55625496    -0.29200
N2452       N  0.71507927  0.76241676  0.49095497    -0.45800
C2453       C  0.72471099  0.76219661  0.47354282    -0.05100
C2454       C  0.74489006  0.76399396  0.47624743    -0.22400
H2455       H  0.77906979  0.76589379  0.50061622     0.19400
H2456       H  0.71228258  0.76087377  0.53192119     0.18200
H2457       H  0.73585569  0.75743063  0.56741049     0.14500
H2458       H  0.75621925  0.76355144  0.46513125     0.14300
H2459       H  0.79154814  0.76293345  0.53868646     0.32500
H2460       H  0.70005527  0.76045734  0.49323895     0.35200
C2461       C  0.77857349  0.85376580  0.67107599     0.20800
C2462       C  0.77266523  0.83411486  0.66979828    -0.39000
C2463       C  0.77921706  0.82393795  0.65318047     0.19800
C2464       C  0.79099110  0.83254258  0.63902905     0.22500
C2465       C  0.79661935  0.85230552  0.64013703    -0.39500
C2466       C  0.78982878  0.86257620  0.65662913     0.21300
N2467       N  0.77406132  0.86666988  0.68527456    -0.32800
C2468       C  0.78216231  0.88389719  0.67958861    -0.10400
C2469       C  0.79209598  0.88195554  0.66181874    -0.29200
N2470       N  0.79619202  0.81936064  0.62529965    -0.45800
C2471       C  0.78748343  0.80233827  0.63072962    -0.05100
C2472       C  0.77664470  0.80466290  0.64791259    -0.22400
H2473       H  0.76370815  0.82722860  0.68095900     0.19400
H2474       H  0.80565338  0.85916301  0.62902327     0.18200
H2475       H  0.79963483  0.89329640  0.65364806     0.14500
H2476       H  0.76875551  0.79348596  0.65598280     0.14300
H2477       H  0.76533357  0.86414716  0.69761806     0.32500
H2478       H  0.80545045  0.82165784  0.61330695     0.35200
C2479       C  0.72989770  0.78684077  0.00640708     0.20800
C2480       C  0.72833056  0.78724298  0.02700663    -0.39000
C2481       C  0.74615636  0.78684481  0.03741639     0.19800
C2482       C  0.76409793  0.78605086  0.02795261     0.22500
C2483       C  0.76567853  0.78600452  0.00741923    -0.39500
C2484       C  0.74791199  0.78643204  0.99705746     0.21300
N2485       N  0.71523245  0.78749347  0.99316400    -0.32800
C2486       C  0.72402062  0.78775231  0.97528975    -0.10400
C2487       C  0.74438877  0.78708557  0.97715565    -0.29200
N2488       N  0.77884464  0.78564561  0.04100920    -0.45800
C2489       C  0.77036767  0.78632689  0.05899728    -0.05100
C2490       C  0.74994939  0.78721219  0.05738251    -0.22400
H2491       H  0.71428509  0.78789318  0.03437461     0.19400
H2492       H  0.77973690  0.78572987  0.00004520     0.18200
H2493       H  0.75517764  0.78756054  0.96551528     0.14500
H2494       H  0.73936003  0.78807204  0.06917698     0.14300
H2495       H  0.70022685  0.78846176  0.99610420     0.32500
H2496       H  0.79383724  0.78528209  0.03785640     0.35200
C2497       C  0.52519886  0.77592441  0.75381988     0.20800
C2498       C  0.51656865  0.75721341  0.75444141    -0.39000
C2499       C  0.49603718  0.75667395  0.75249707     0.19800
C2500       C  0.48488724  0.77345952  0.74995556     0.22500
C2501       C  0.49349852  0.79221629  0.74959709    -0.39500
C2502       C  0.51402963  0.79276649  0.75173140     0.21300
N2503       N  0.54450024  0.78024493  0.75382460    -0.32800
C2504       C  0.54563895  0.80001316  0.75186473    -0.10400
C2505       C  0.52692544  0.80832789  0.75073085    -0.29200
N2506       N  0.46584381  0.76884859  0.74708119    -0.45800
C2507       C  0.46484759  0.74896327  0.74790279    -0.05100
C2508       C  0.48339352  0.74092214  0.75138542    -0.22400
H2509       H  0.52525517  0.74398177  0.75575886     0.19400
H2510       H  0.48491605  0.80537871  0.74727385     0.18200
H2511       H  0.52329540  0.82360062  0.74829223     0.14500
H2512       H  0.48723604  0.72553110  0.75218774     0.14300
H2513       H  0.55616429  0.77032121  0.75443347     0.32500
H2514       H  0.45434490  0.77857624  0.74424106     0.35200
C2515       C  0.64098172  0.81644293  0.81431010     0.20800
C2516       C  0.65827207  0.80948005  0.82297310    -0.39000
C2517       C  0.65945651  0.81152434  0.84335714     0.19800
C2518       C  0.64438914  0.81952318  0.85437737     0.22500
C2519       C  0.62715445  0.82681763  0.84563011    -0.39500
C2520       C  0.62611385  0.82510722  0.82509433     0.21300
N2521       N  0.63636734  0.81599252  0.79521916    -0.32800
C2522       C  0.61858353  0.82471596  0.79361792    -0.10400
C2523       C  0.61166220  0.83071610  0.81193922    -0.29200
N2524       N  0.64882731  0.81887162  0.87360970    -0.45800
C2525       C  0.66694532  0.81068483  0.87468089    -0.05100
C2526       C  0.67410361  0.80606117  0.85612684    -0.22400
H2527       H  0.66992800  0.80287138  0.81445161     0.19400
H2528       H  0.61542125  0.83325204  0.85417135     0.18200
H2529       H  0.59789271  0.83791255  0.81519750     0.14500
H2530       H  0.68789618  0.79905491  0.85254177     0.14300
H2531       H  0.64494385  0.81028385  0.78386955     0.32500
H2532       H  0.64010116  0.82363471  0.88526966     0.35200
C2533       C  0.65983086  0.88959105  0.72394119     0.20800
C2534       C  0.67010074  0.90682267  0.72850789    -0.39000
C2535       C  0.68685338  0.91049071  0.71718338     0.19800
C2536       C  0.69267625  0.89816867  0.70211548     0.22500
C2537       C  0.68250099  0.88078919  0.69769469    -0.39500
C2538       C  0.66597106  0.87688552  0.70933747     0.21300
N2539       N  0.64408765  0.88235888  0.73327959    -0.32800
C2540       C  0.64034795  0.86473999  0.72487343    -0.10400
C2541       C  0.65367453  0.86077386  0.70984352    -0.29200
N2542       N  0.71009700  0.90387372  0.69488074    -0.45800
C2543       C  0.71561509  0.91958106  0.70573707    -0.05100
C2544       C  0.70148129  0.92419822  0.71974501    -0.22400
H2545       H  0.66585919  0.91621103  0.74059173     0.19400
H2546       H  0.68758332  0.87063552  0.68659547     0.18200
H2547       H  0.65426948  0.84789300  0.70057954     0.14500
H2548       H  0.70259455  0.93497094  0.73135940     0.14300
H2549       H  0.63658205  0.88881697  0.74497711     0.32500
H2550       H  0.71864106  0.89635742  0.68461215     0.35200
C2551       C  0.98530887  0.77183531  0.76809571     0.20800
C2552       C  0.99530253  0.78983602  0.76676375    -0.39000
C2553       C  0.01586822  0.78883162  0.76810735     0.19800
C2554       C  0.02571994  0.77126306  0.77075503     0.22500
C2555       C  0.01575399  0.75325654  0.77181370    -0.39500
C2556       C  0.99522901  0.75423803  0.77025679     0.21300
N2557       N  0.96575582  0.76892603  0.76855670    -0.32800
C2558       C  0.96324340  0.74930371  0.77081844    -0.10400
C2559       C  0.98129070  0.73966765  0.77175239    -0.29200
N2560       N  0.04510701  0.77436291  0.77293474    -0.45800
C2561       C  0.04767626  0.79405248  0.77157433    -0.05100
C2562       C  0.02977707  0.80354705  0.76841456    -0.22400
H2563       H  0.98761248  0.80365770  0.76531262     0.19400
H2564       H  0.02338571  0.73952515  0.77416356     0.18200
H2565       H  0.98384803  0.72419000  0.77425123     0.14500
H2566       H  0.02720250  0.81918124  0.76730854     0.14300
H2567       H  0.95482046  0.77964385  0.76787371     0.32500
H2568       H  0.05586095  0.76378623  0.77566712     0.35200
C2569       C  0.87455807  0.73982642  0.70424267     0.20800
C2570       C  0.86438874  0.75341061  0.69269166    -0.39000
C2571       C  0.85144874  0.74541878  0.67896038     0.19800
C2572       C  0.84863849  0.72539482  0.67694506     0.22500
C2573       C  0.85904913  0.71173256  0.68837994    -0.39500
C2574       C  0.87218533  0.71975761  0.70209677     0.21300
N2575       N  0.88626798  0.74386977  0.71947579    -0.32800
C2576       C  0.89144330  0.72632486  0.72720856    -0.10400
C2577       C  0.88321849  0.71085615  0.71660337    -0.29200
N2578       N  0.83537199  0.72167322  0.66280881    -0.45800
C2579       C  0.83002844  0.73949129  0.65576944    -0.05100
C2580       C  0.83975670  0.75460422  0.66538421    -0.22400
H2581       H  0.86617518  0.76908859  0.69450624     0.19400
H2582       H  0.85681424  0.69607414  0.68696895     0.18200
H2583       H  0.88368795  0.69538577  0.72017250     0.14500
H2584       H  0.83875928  0.77018641  0.66244676     0.14300
H2585       H  0.88948523  0.75776992  0.72508317     0.32500
H2586       H  0.83088252  0.70794458  0.65768930     0.35200
C2587       C  0.74195671  0.54877159  0.76252770     0.20800
C2588       C  0.74522880  0.53903855  0.74462915    -0.39000
C2589       C  0.74508150  0.51839746  0.74542312     0.19800
C2590       C  0.74169438  0.50819318  0.76266060     0.22500
C2591       C  0.73861511  0.51790050  0.78056769    -0.39500
C2592       C  0.73903278  0.53850488  0.77981445     0.21300
N2593       N  0.74094028  0.56830908  0.76569076    -0.32800
C2594       C  0.73765500  0.57043047  0.78521487    -0.10400
C2595       C  0.73642522  0.55216698  0.79444640    -0.29200
N2596       N  0.74118459  0.48871124  0.75932021    -0.45800
C2597       C  0.74438499  0.48645596  0.73980677    -0.05100
C2598       C  0.74699767  0.50464768  0.73069784    -0.22400
H2599       H  0.74747794  0.54693945  0.73103539     0.19400
H2600       H  0.73588579  0.51000023  0.79407614     0.18200
H2601       H  0.73359551  0.54928624  0.80980969     0.14500
H2602       H  0.74913775  0.50746793  0.71521470     0.14300
H2603       H  0.74244278  0.57946007  0.75528131     0.32500
H2604       H  0.73828590  0.47768312  0.76956680     0.35200
C2605       C  0.81148708  0.65174268  0.80637249     0.20800
C2606       C  0.83211441  0.65104853  0.80677711    -0.39000
C2607       C  0.84180188  0.66856370  0.80164274     0.19800
C2608       C  0.83171862  0.68552249  0.79676909     0.22500
C2609       C  0.81117486  0.68610831  0.79601710    -0.39500
C2610       C  0.80153855  0.66857885  0.80084498     0.21300
N2611       N  0.79875913  0.63717531  0.81063460    -0.32800
C2612       C  0.78066377  0.64481043  0.80736396    -0.10400
C2613       C  0.78185618  0.66428097  0.80121126    -0.29200
N2614       N  0.84422223  0.70021946  0.79260776    -0.45800
C2615       C  0.86245205  0.69253101  0.79452034    -0.05100
C2616       C  0.86154606  0.67280414  0.80008781    -0.22400
H2617       H  0.84003519  0.63785156  0.81070228     0.19400
H2618       H  0.80325447  0.69923737  0.79186161     0.18200
H2619       H  0.76984049  0.67405852  0.79768889     0.14500
H2620       H  0.87370809  0.66288745  0.80253641     0.14300
H2621       H  0.80214259  0.62291685  0.81513176     0.32500
H2622       H  0.84058431  0.71445446  0.78822691     0.35200
C2623       C  0.71682869  0.68815632  0.87250307     0.20800
C2624       C  0.72331426  0.69941602  0.88849156    -0.39000
C2625       C  0.71122253  0.71519210  0.89386911     0.19800
C2626       C  0.69375852  0.71923095  0.88431985     0.22500
C2627       C  0.68741960  0.70811697  0.86808803    -0.39500
C2628       C  0.69974227  0.69254093  0.86243994     0.21300
N2629       N  0.72594378  0.67269350  0.86435111    -0.32800
C2630       C  0.71486788  0.66735763  0.84871189    -0.10400
C2631       C  0.69838348  0.67941897  0.84698159    -0.29200
N2632       N  0.68559928  0.73574652  0.89150540    -0.45800
C2633       C  0.69816795  0.74249664  0.90540182    -0.05100
C2634       C  0.71431017  0.73005159  0.90726304    -0.22400
H2635       H  0.73707041  0.69644407  0.89585437     0.19400
H2636       H  0.67415491  0.71167506  0.86011200     0.18200
H2637       H  0.68684147  0.67849736  0.83611437     0.14500
H2638       H  0.72719269  0.73229178  0.91627553     0.14300
H2639       H  0.73906799  0.66627333  0.86899616     0.32500
H2640       H  0.67311879  0.74287256  0.88616792     0.35200
C2641       C  0.89564812  0.94800312  0.70235061     0.20800
C2642       C  0.88124331  0.93620799  0.71123293    -0.39000
C2643       C  0.86179525  0.94274543  0.70907161     0.19800
C2644       C  0.85714687  0.95958962  0.69867103     0.22500
C2645       C  0.87149534  0.97145663  0.69007207    -0.39500
C2646       C  0.89083728  0.96504501  0.69237311     0.21300
N2647       N  0.91501884  0.94437064  0.70092990    -0.32800
C2648       C  0.92241116  0.95926563  0.68998028    -0.10400
C2649       C  0.90780696  0.97249232  0.68457925    -0.29200
N2650       N  0.83766546  0.96181863  0.69723298    -0.45800
C2651       C  0.82975802  0.94640872  0.70691430    -0.05100
C2652       C  0.84429726  0.93424597  0.71470599    -0.22400
H2653       H  0.88483824  0.92266339  0.71871600     0.19400
H2654       H  0.86781301  0.98440058  0.68162441     0.18200
H2655       H  0.90925937  0.98530074  0.67529008     0.14500
H2656       H  0.84231366  0.92052380  0.72245772     0.14300
H2657       H  0.92257507  0.93220326  0.70639689     0.32500
H2658       H  0.83018821  0.97286362  0.68966526     0.35200
C2659       C  0.17643246  0.90640680  0.56231244     0.20800
C2660       C  0.17196066  0.88663247  0.55866979    -0.39000
C2661       C  0.18281411  0.87293448  0.56952649     0.19800
C2662       C  0.19718151  0.87860717  0.58272639     0.22500
C2663       C  0.20153720  0.89832621  0.58647450    -0.39500
C2664       C  0.19051244  0.91198651  0.57585902     0.21300
N2665       N  0.16746740  0.92222360  0.55476417    -0.32800
C2666       C  0.17566371  0.93789056  0.56385346    -0.10400
C2667       C  0.19016062  0.93213323  0.57704386    -0.29200
N2668       N  0.20515616  0.86294238  0.59146770    -0.45800
C2669       C  0.19569085  0.84715745  0.58401286    -0.05100
C2670       C  0.18160064  0.85272438  0.57026132    -0.22400
H2671       H  0.16057044  0.88226990  0.54850081     0.19400
H2672       H  0.21238041  0.90270058  0.59722329     0.18200
H2673       H  0.19878548  0.94138341  0.58664621     0.14500
H2674       H  0.17174762  0.84332370  0.56209949     0.14300
H2675       H  0.15588512  0.92232237  0.54472164     0.32500
H2676       H  0.21608870  0.86301399  0.60221790     0.35200
C2677       C  0.08821408  0.96937238  0.61177227     0.20800
C2678       C  0.08068925  0.96388138  0.63023036    -0.39000
C2679       C  0.06014910  0.96460783  0.63212513     0.19800
C2680       C  0.04821756  0.97070098  0.61684744     0.22500
C2681       C  0.05567084  0.97573252  0.59834736    -0.39500
C2682       C  0.07608156  0.97468215  0.59636659     0.21300
N2683       N  0.10716612  0.97111407  0.60650309    -0.32800
C2684       C  0.10700925  0.97727334  0.58754987    -0.10400
C2685       C  0.08789280  0.97946509  0.58067079    -0.29200
N2686       N  0.02943787  0.97146878  0.62257986    -0.45800
C2687       C  0.02918842  0.96551907  0.64153768    -0.05100
C2688       C  0.04805547  0.96089121  0.64806078    -0.22400
H2689       H  0.09013621  0.95976122  0.64231697     0.19400
H2690       H  0.04627046  0.98053586  0.58647427     0.18200
H2691       H  0.08329091  0.98481237  0.56643591     0.14500
H2692       H  0.05238488  0.95618096  0.66259819     0.14300
H2693       H  0.11944808  0.96860145  0.61532400     0.32500
H2694       H  0.01742952  0.97583076  0.61409823     0.35200
C2695       C  0.07243878  0.21079465  0.65318129     0.20800
C2696       C  0.07540988  0.21721564  0.63385922    -0.39000
C2697       C  0.06592976  0.20631130  0.61926674     0.19800
C2698       C  0.05406442  0.19041208  0.62360283     0.22500
C2699       C  0.05115920  0.18391339  0.64300790    -0.39500
C2700       C  0.06095006  0.19466017  0.65765005     0.21300
N2701       N  0.08083550  0.21803647  0.66940571    -0.32800
C2702       C  0.07497900  0.20637462  0.68441657    -0.10400
C2703       C  0.06244588  0.19160288  0.67771351    -0.29200
N2704       N  0.04752640  0.18197530  0.60699326    -0.45800
C2705       C  0.05561773  0.19235198  0.59204010    -0.05100
C2706       C  0.06710905  0.20770458  0.59912673    -0.22400
H2707       H  0.08495339  0.22942900  0.63040225     0.19400
H2708       H  0.04243907  0.17108179  0.64638471     0.18200
H2709       H  0.05579664  0.17996229  0.68622305     0.14500
H2710       H  0.07570033  0.21805598  0.59068543     0.14300
H2711       H  0.09055321  0.22986871  0.67011352     0.32500
H2712       H  0.03887393  0.16937692  0.60588286     0.35200
C2713       C  0.10153155  0.10499551  0.55308617     0.20800
C2714       C  0.11833932  0.09585424  0.56075969    -0.39000
C2715       C  0.12099125  0.07613406  0.55548125     0.19800
C2716       C  0.10808672  0.06645405  0.54314293     0.22500
C2717       C  0.09114634  0.07549594  0.53568604    -0.39500
C2718       C  0.08826797  0.09506689  0.54133075     0.21300
N2719       N  0.09592900  0.12373556  0.55556672    -0.32800
C2720       C  0.07878235  0.12561754  0.54568126    -0.10400
C2721       C  0.07345952  0.10804900  0.53666311    -0.29200
N2722       N  0.11388733  0.04786558  0.54027343    -0.45800
C2723       C  0.13039378  0.04553092  0.55112988    -0.05100
C2724       C  0.13530765  0.06283149  0.56088188    -0.22400
H2725       H  0.12854752  0.10351185  0.57020647     0.19400
H2726       H  0.08091835  0.06782371  0.52626722     0.18200
H2727       H  0.06093464  0.10541301  0.52725894     0.14500
H2728       H  0.14753070  0.06526622  0.57072069     0.14300
H2729       H  0.10338371  0.13464407  0.56332971     0.32500
H2730       H  0.10670307  0.03720747  0.53192385     0.35200
C2731       C  0.92589508  0.83005806  0.40454738     0.20800
C2732       C  0.91317345  0.82248484  0.39024679    -0.39000
C2733       C  0.92025026  0.82304511  0.37091672     0.19800
C2734       C  0.93844346  0.83082410  0.36623753     0.22500
C2735       C  0.95118508  0.83815850  0.38049092    -0.39500
C2736       C  0.94421917  0.83740727  0.39973350     0.21300
N2737       N  0.92236672  0.83225066  0.42384283    -0.32800
C2738       C  0.93862964  0.84104992  0.43113071    -0.10400
C2739       C  0.95256573  0.84434115  0.41659235    -0.29200
N2740       N  0.94117707  0.83111921  0.34678606    -0.45800
C2741       C  0.92472034  0.82326843  0.33902856    -0.05100
C2742       C  0.91136372  0.81786580  0.35353809    -0.22400
H2743       H  0.89870708  0.81701056  0.39382459     0.19400
H2744       H  0.96527573  0.84448689  0.37680923     0.18200
H2745       H  0.96663935  0.85155430  0.41805260     0.14500
H2746       H  0.89675492  0.81197202  0.35155318     0.14300
H2747       H  0.90956852  0.82856895  0.43141856     0.32500
H2748       H  0.95327088  0.83672541  0.33922242     0.35200
C2749       C  0.95036700  0.89343114  0.56893035     0.20800
C2750       C  0.94756177  0.89331761  0.58935926    -0.39000
C2751       C  0.95269667  0.91071219  0.59917939     0.19800
C2752       C  0.95957360  0.92709613  0.58930674     0.22500
C2753       C  0.96265398  0.92710662  0.56899441    -0.39500
C2754       C  0.95800518  0.90961161  0.55929752     0.21300
N2755       N  0.94691991  0.87871650  0.55619129    -0.32800
C2756       C  0.95285127  0.88556401  0.53848438    -0.10400
C2757       C  0.95987488  0.90470773  0.53986443    -0.29200
N2758       N  0.96394660  0.94155999  0.60192391    -0.45800
C2759       C  0.96036589  0.93420681  0.62002127    -0.05100
C2760       C  0.95328704  0.91501843  0.61896144    -0.22400
H2761       H  0.94220270  0.88051532  0.59707858     0.19400
H2762       H  0.96863252  0.93968461  0.56135440     0.18200
H2763       H  0.96526077  0.91393261  0.52810412     0.14500
H2764       H  0.94971424  0.90534257  0.63103958     0.14300
H2765       H  0.94109781  0.86489395  0.55933535     0.32500
H2766       H  0.97009260  0.95518653  0.59852537     0.35200
C2767       C  0.81599424  0.12352128  0.44154146     0.20800
C2768       C  0.80611091  0.13843638  0.43131259    -0.39000
C2769       C  0.81159423  0.15770726  0.43609261     0.19800
C2770       C  0.82589597  0.16179978  0.44993304     0.22500
C2771       C  0.83557387  0.14690447  0.46035197    -0.39500
C2772       C  0.83003835  0.12765605  0.45562826     0.21300
N2773       N  0.81425753  0.10402923  0.43894642    -0.32800
C2774       C  0.82722840  0.09573482  0.45155198    -0.10400
C2775       C  0.83724049  0.10999242  0.46228408    -0.29200
N2776       N  0.82946126  0.18118106  0.45075465    -0.45800
C2777       C  0.81732072  0.18949588  0.43736794    -0.05100
C2778       C  0.80579468  0.17535581  0.42808105    -0.22400
H2779       H  0.79533886  0.13526518  0.42008262     0.19400
H2780       H  0.84696125  0.15004962  0.47096611     0.18200
H2781       H  0.84870705  0.10773484  0.47304313     0.14500
H2782       H  0.79526548  0.17760914  0.41640305     0.14300
H2783       H  0.80507599  0.09683378  0.42900774     0.32500
H2784       H  0.83987818  0.18825851  0.45948738     0.35200
C2785       C  0.89069713  0.92935491  0.47679060     0.20800
C2786       C  0.87513752  0.94055014  0.48419129    -0.39000
C2787       C  0.86828103  0.95551619  0.47190786     0.19800
C2788       C  0.87611214  0.95891585  0.45348232     0.22500
C2789       C  0.89201903  0.94791611  0.44621281    -0.39500
C2790       C  0.89910421  0.93306095  0.45867462     0.21300
N2791       N  0.89960739  0.91424626  0.48567101    -0.32800
C2792       C  0.91402667  0.90837358  0.47336262    -0.10400
C2793       C  0.91434533  0.91981789  0.45635708    -0.29200
N2794       N  0.86773976  0.97480657  0.44526495    -0.45800
C2795       C  0.85486853  0.98179160  0.45874997    -0.05100
C2796       C  0.85480595  0.97011574  0.47553596    -0.22400
H2797       H  0.86906845  0.93802965  0.49864987     0.19400
H2798       H  0.89860824  0.95094271  0.43208513     0.18200
H2799       H  0.92391625  0.91821716  0.44379162     0.14500
H2800       H  0.84708736  0.97284185  0.48914374     0.14300
H2801       H  0.89605572  0.90819960  0.49930656     0.32500
H2802       H  0.87184369  0.98155375  0.43212430     0.35200
C2803       C  0.11037219  0.08225433  0.33988937     0.20800
C2804       C  0.13018513  0.07856089  0.34412407    -0.39000
C2805       C  0.14379525  0.09020541  0.33402544     0.19800
C2806       C  0.13808090  0.10434486  0.32060253     0.22500
C2807       C  0.11821532  0.10827818  0.31660813    -0.39500
C2808       C  0.10456971  0.09669941  0.32683279     0.21300
N2809       N  0.09471881  0.07305279  0.34747343    -0.32800
C2810       C  0.07875525  0.08176580  0.33941078    -0.10400
C2811       C  0.08427277  0.09668233  0.32648520    -0.29200
N2812       N  0.15386418  0.11308044  0.31263995    -0.45800
C2813       C  0.16972144  0.10459465  0.32120014    -0.05100
C2814       C  0.16403051  0.09032231  0.33471285    -0.22400
H2815       H  0.13467001  0.06737892  0.35448142     0.19400
H2816       H  0.11372991  0.11946498  0.30625740     0.18200
H2817       H  0.07476073  0.10617537  0.31801548     0.14500
H2818       H  0.17342360  0.08117178  0.34367926     0.14300
H2819       H  0.09487728  0.06170088  0.35778135     0.32500
H2820       H  0.15386073  0.12428343  0.30217145     0.35200
C2821       C  0.91955583  0.04359439  0.41897991     0.20800
C2822       C  0.93983176  0.03998601  0.41897480    -0.39000
C2823       C  0.94997598  0.04599395  0.40207805     0.19800
C2824       C  0.94072792  0.05519630  0.38649332     0.22500
C2825       C  0.92038153  0.05846411  0.38634952    -0.39500
C2826       C  0.91018093  0.05217798  0.40312109     0.21300
N2827       N  0.90667258  0.03957504  0.43338800    -0.32800
C2828       C  0.88892658  0.04535525  0.42650473    -0.10400
C2829       C  0.89049997  0.05316950  0.40764870    -0.29200
N2830       N  0.95385218  0.06050922  0.37270198    -0.45800
C2831       C  0.97153006  0.05435774  0.37945650    -0.05100
C2832       C  0.96966313  0.04514202  0.39765618    -0.22400
H2833       H  0.94720422  0.03318291  0.43129524     0.19400
H2834       H  0.91305366  0.06554592  0.37416269     0.18200
H2835       H  0.87882199  0.05895964  0.39857073     0.14500
H2836       H  0.98129202  0.03934423  0.40679637     0.14300
H2837       H  0.90968884  0.03300989  0.44691268     0.32500
H2838       H  0.95101696  0.06807444  0.35967209     0.35200
C2839       C  0.03056600  0.12282377  0.42597654     0.20800
C2840       C  0.02342459  0.13840809  0.43735830    -0.39000
C2841       C  0.03513875  0.14390692  0.45334578     0.19800
C2842       C  0.05279775  0.13478784  0.45754554     0.22500
C2843       C  0.05974203  0.11886720  0.44639899    -0.39500
C2844       C  0.04785863  0.11317732  0.43052745     0.21300
N2845       N  0.02215774  0.11494053  0.40998950    -0.32800
C2846       C  0.03395960  0.09992814  0.40448081    -0.10400
C2847       C  0.05010587  0.09826877  0.41697890    -0.29200
N2848       N  0.06077976  0.14237424  0.47393994    -0.45800
C2849       C  0.04790243  0.15611632  0.48038561    -0.05100
C2850       C  0.03171899  0.15742707  0.46797011    -0.22400
H2851       H  0.00960799  0.14555569  0.43415615     0.19400
H2852       H  0.07325040  0.11131507  0.44997009     0.18200
H2853       H  0.06204967  0.08784790  0.41601337     0.14500
H2854       H  0.01874104  0.16636120  0.46994790     0.14300
H2855       H  0.00909878  0.11939021  0.40330406     0.32500
H2856       H  0.07346180  0.13754981  0.48107872     0.35200
C2857       C  0.89932561  0.07302644  0.83333171     0.20800
C2858       C  0.87985090  0.06851502  0.83838129    -0.39000
C2859       C  0.86535233  0.07962385  0.82886606     0.19800
C2860       C  0.86999952  0.09388718  0.81516690     0.22500
C2861       C  0.88944259  0.09853776  0.81027859    -0.39500
C2862       C  0.90391895  0.08762969  0.81997702     0.21300
N2863       N  0.91572982  0.06527508  0.84101258    -0.32800
C2864       C  0.93085851  0.07519884  0.83273441    -0.10400
C2865       C  0.92408803  0.08924708  0.81947817    -0.29200
N2866       N  0.85372606  0.10275649  0.80860225    -0.45800
C2867       C  0.83857233  0.09438318  0.81837337    -0.05100
C2868       C  0.84519490  0.07983083  0.83117470    -0.22400
H2869       H  0.87628585  0.05750576  0.84926135     0.19400
H2870       H  0.89303005  0.11012176  0.80001766     0.18200
H2871       H  0.93271240  0.09959789  0.81107209     0.14500
H2872       H  0.83652569  0.07096308  0.84109082     0.14300
H2873       H  0.91656574  0.05441960  0.85180973     0.32500
H2874       H  0.85302820  0.11435507  0.79859364     0.35200
C2875       C  0.99545907  0.01466219  0.73894128     0.20800
C2876       C  0.99470113  0.03288739  0.74845651    -0.39000
C2877       C  0.99690353  0.03240810  0.76891290     0.19800
C2878       C  0.99939317  0.01508143  0.77923371     0.22500
C2879       C  0.00041014  0.99682526  0.76966615    -0.39500
C2880       C  0.99839847  0.99732204  0.74912474     0.21300
N2881       N  0.99228824  0.01111340  0.71979630    -0.32800
C2882       C  0.99322120  0.99136314  0.71769258    -0.10400
C2883       C  0.99719937  0.98225783  0.73563749    -0.29200
N2884       N  0.99939835  0.01851289  0.79871968    -0.45800
C2885       C  0.99711687  0.03819481  0.80071516    -0.05100
C2886       C  0.99567478  0.04732180  0.78245069    -0.22400
H2887       H  0.99198659  0.04640946  0.74056960     0.19400
H2888       H  0.00199044  0.98319194  0.77766543     0.18200
H2889       H  0.99797615  0.96667163  0.73859763     0.14500
H2890       H  0.99297933  0.06270179  0.77952247     0.14300
H2891       H  0.98888565  0.02143523  0.70897892     0.32500
H2892       H  0.00035119  0.00810495  0.80993578     0.35200
C2893       C  0.20146749  0.15941893  0.93697793     0.20800
C2894       C  0.20704986  0.14025644  0.93189761    -0.39000
C2895       C  0.19776022  0.12518454  0.94238746     0.19800
C2896       C  0.18413382  0.12893959  0.95697888     0.22500
C2897       C  0.17848726  0.14808612  0.96198614    -0.39500
C2898       C  0.18760693  0.16314307  0.95134922     0.21300
N2899       N  0.20746260  0.17622264  0.92858866    -0.32800
C2900       C  0.19718886  0.19071392  0.93753896    -0.10400
C2901       C  0.18467222  0.18314069  0.95183657    -0.29200
N2902       N  0.17663461  0.11212993  0.96399240    -0.45800
C2903       C  0.18528076  0.09759135  0.95355851    -0.05100
C2904       C  0.19867484  0.10512050  0.94005352    -0.22400
H2905       H  0.21743547  0.13729169  0.92025951     0.19400
H2906       H  0.16740407  0.15101853  0.97297024     0.18200
H2907       H  0.17453305  0.19115379  0.96105975     0.14500
H2908       H  0.20727112  0.09705520  0.92941579     0.14300
H2909       H  0.21750553  0.17770102  0.91710831     0.32500
H2910       H  0.16561451  0.11068108  0.97454283     0.35200
C2911       C  0.09957101  0.06153391  0.90417959     0.20800
C2912       C  0.09121007  0.06845865  0.88654402    -0.39000
C2913       C  0.07092023  0.06520688  0.88428182     0.19800
C2914       C  0.06004570  0.05550996  0.89842223     0.22500
C2915       C  0.06825932  0.04906560  0.91616668    -0.39500
C2916       C  0.08836017  0.05258324  0.91854838     0.21300
N2917       N  0.11861094  0.06183584  0.90953020    -0.32800
C2918       C  0.11937689  0.05332301  0.92754788    -0.10400
C2919       C  0.10077054  0.04755078  0.93371627    -0.29200
N2920       N  0.04135321  0.05348721  0.89264962    -0.45800
C2921       C  0.03998576  0.06224021  0.87484446    -0.05100
C2922       C  0.05813827  0.06990036  0.86910863    -0.22400
H2923       H  0.09989153  0.07560335  0.87533248     0.19400
H2924       H  0.05964633  0.04160367  0.92722779     0.18200
H2925       H  0.09699222  0.03986965  0.94709757     0.14500
H2926       H  0.06153396  0.07766644  0.85567948     0.14300
H2927       H  0.13038431  0.06727720  0.90137297     0.32500
H2928       H  0.03002537  0.04687240  0.90057875     0.35200
C2929       C  0.08122192  0.83079660  0.90473268     0.20800
C2930       C  0.09196600  0.81992945  0.89083157    -0.39000
C2931       C  0.08721841  0.82348950  0.87102452     0.19800
C2932       C  0.07297776  0.83692588  0.86557462     0.22500
C2933       C  0.06214018  0.84755410  0.87940696    -0.39500
C2934       C  0.06676746  0.84391017  0.89909200     0.21300
N2935       N  0.08334643  0.83082798  0.92442645    -0.32800
C2936       C  0.07000576  0.84397472  0.93121445    -0.10400
C2937       C  0.05938044  0.85229364  0.91584028    -0.29200
N2938       N  0.07190276  0.83851983  0.84596447    -0.45800
C2939       C  0.08547263  0.82595759  0.83872807    -0.05100
C2940       C  0.09526119  0.81617952  0.85389831    -0.22400
H2941       H  0.10339893  0.80975763  0.89508594     0.19400
H2942       H  0.05113078  0.85818059  0.87513731     0.18200
H2943       H  0.04808580  0.86342327  0.91677881     0.14500
H2944       H  0.10713248  0.80571469  0.85257492     0.14300
H2945       H  0.09330905  0.82260714  0.93268198     0.32500
H2946       H  0.06275365  0.84788836  0.83798656     0.35200
C2947       C  0.12339341  0.96619204  0.95956304     0.20800
C2948       C  0.10473208  0.95763020  0.95817571    -0.39000
C2949       C  0.10302939  0.93863672  0.96585672     0.19800
C2950       C  0.11873462  0.92889435  0.97428365     0.22500
C2951       C  0.13741814  0.93752098  0.97579178    -0.39500
C2952       C  0.13913713  0.95657225  0.96808381     0.21300
N2953       N  0.12841635  0.98449853  0.95437194    -0.32800
C2954       C  0.14744789  0.98666792  0.95961637    -0.10400
C2955       C  0.15472541  0.96957915  0.96823846    -0.29200
N2956       N  0.11324277  0.91099192  0.98049717    -0.45800
C2957       C  0.09392170  0.90935128  0.97597826    -0.05100
C2958       C  0.08700937  0.92634213  0.96691212    -0.22400
H2959       H  0.09237285  0.96531224  0.95180546     0.19400
H2960       H  0.14962708  0.93005746  0.98268690     0.18200
H2961       H  0.16904363  0.96737874  0.97474202     0.14500
H2962       H  0.07229785  0.92924076  0.96168003     0.14300
H2963       H  0.11918396  0.99526497  0.94853402     0.32500
H2964       H  0.12209370  0.90051843  0.98735677     0.35200
C2965       C  0.11577201  0.95416978  0.19907737     0.20800
C2966       C  0.13036711  0.94523813  0.21050497    -0.39000
C2967       C  0.14973543  0.94931543  0.20493467     0.19800
C2968       C  0.15423931  0.96131329  0.18915596     0.22500
C2969       C  0.13965225  0.97043383  0.17787907    -0.39500
C2970       C  0.12028817  0.96643995  0.18351079     0.21300
N2971       N  0.09627623  0.95166812  0.20055671    -0.32800
C2972       C  0.08838220  0.96253541  0.18589823    -0.10400
C2973       C  0.10285809  0.97208757  0.17506672    -0.29200
N2974       N  0.17370813  0.96192069  0.18618341    -0.45800
C2975       C  0.18161039  0.95024183  0.20019697    -0.05100
C2976       C  0.16715531  0.94222563  0.21224279    -0.22400
H2977       H  0.12690217  0.93543168  0.22251157     0.19400
H2978       H  0.14310947  0.97957317  0.16535487     0.18200
H2979       H  0.10091049  0.98121097  0.16220503     0.14500
H2980       H  0.16910526  0.93206981  0.22430529     0.14300
H2981       H  0.08883759  0.94280047  0.21060429     0.32500
H2982       H  0.18111472  0.96944378  0.17507134     0.35200
C2983       C  0.01731100  0.99679925  0.25304490     0.20800
C2984       C  0.01692252  0.99459855  0.27360455    -0.39000
C2985       C  0.01657644  0.01210776  0.28455152     0.19800
C2986       C  0.01636290  0.03034042  0.27560678     0.22500
C2987       C  0.01695638  0.03253147  0.25511505    -0.39500
C2988       C  0.01752772  0.01508185  0.24421070     0.21300
N2989       N  0.01858569  0.98254206  0.23942468    -0.32800
C2990       C  0.01988016  0.99180250  0.22181361    -0.10400
C2991       C  0.01923584  0.01212853  0.22423123    -0.29200
N2992       N  0.01653416  0.04470871  0.28909294    -0.45800
C2993       C  0.01717141  0.03571773  0.30684123    -0.05100
C2994       C  0.01720236  0.01531379  0.30463406    -0.22400
H2995       H  0.01729560  0.98032246  0.28055975     0.19400
H2996       H  0.01735945  0.04681592  0.24817754     0.18200
H2997       H  0.02042636  0.02324573  0.21294735     0.14500
H2998       H  0.01799566  0.00435821  0.31610878     0.14300
H2999       H  0.01927464  0.96744662  0.24200242     0.32500
H3000       H  0.01690750  0.05978962  0.28636025     0.35200
C3001       C  0.04726001  0.92660298  0.09123996     0.20800
C3002       C  0.04530516  0.92667201  0.07077906    -0.39000
C3003       C  0.04989573  0.90902321  0.06128850     0.19800
C3004       C  0.05646756  0.89256700  0.07123414     0.22500
C3005       C  0.05821105  0.89241476  0.09183253    -0.39500
C3006       C  0.05315300  0.91002958  0.10142843     0.21300
N3007       N  0.04278097  0.94129331  0.10361776    -0.32800
C3008       C  0.04537723  0.93398166  0.12191217    -0.10400
C3009       C  0.05192997  0.91453776  0.12116784    -0.29200
N3010       N  0.06002216  0.87772649  0.05857269    -0.45800
C3011       C  0.05520516  0.88482333  0.04058107    -0.05100
C3012       C  0.04881835  0.90420942  0.04176721    -0.22400
H3013       H  0.04017354  0.93944063  0.06283775     0.19400
H3014       H  0.06277876  0.87946305  0.09981674     0.18200
H3015       H  0.05488587  0.90486757  0.13342074     0.14500
H3016       H  0.04425470  0.91363394  0.02981361     0.14300
H3017       H  0.03744613  0.95517013  0.09986941     0.32500
H3018       H  0.06508790  0.86365990  0.06195049     0.35200
C3019       C  0.82848826  0.87249924  0.07874930     0.20800
C3020       C  0.83915239  0.88526993  0.06664874    -0.39000
C3021       C  0.83635876  0.90534893  0.07021518     0.19800
C3022       C  0.82417130  0.91224024  0.08493581     0.22500
C3023       C  0.81345708  0.89946818  0.09700597    -0.39500
C3024       C  0.81597363  0.87938491  0.09319873     0.21300
N3025       N  0.82837550  0.85276578  0.07817453    -0.32800
C3026       C  0.81545873  0.84709678  0.09216813    -0.10400
C3027       C  0.80745438  0.86326543  0.10185208    -0.29200
N3028       N  0.82437312  0.93197634  0.08554300    -0.45800
C3029       C  0.83662368  0.93763175  0.07094860    -0.05100
C3030       C  0.84433732  0.92145278  0.06106347    -0.22400
H3031       H  0.84881271  0.87997430  0.05521525     0.19400
H3032       H  0.80377197  0.90476688  0.10841709     0.18200
H3033       H  0.79692011  0.86319910  0.11373420     0.14500
H3034       H  0.85473785  0.92148439  0.04906351     0.14300
H3035       H  0.83640230  0.84374008  0.06874613     0.32500
H3036       H  0.81677321  0.94100824  0.09531319     0.35200
C3037       C  0.92062279  0.98022250  0.11986203     0.20800
C3038       C  0.93067687  0.98577428  0.13697323    -0.39000
C3039       C  0.94748215  0.97476133  0.14148496     0.19800
C3040       C  0.95356575  0.95912246  0.13004345     0.22500
C3041       C  0.94363802  0.95374337  0.11276390    -0.39500
C3042       C  0.92703780  0.96502113  0.10803027     0.21300
N3043       N  0.90471209  0.98885816  0.11206045    -0.32800
C3044       C  0.90111934  0.97938277  0.09494027    -0.10400
C3045       C  0.91474797  0.96439485  0.09188185    -0.29200
N3046       N  0.97072677  0.95196261  0.13666805    -0.45800
C3047       C  0.97582412  0.96335019  0.15215763    -0.05100
C3048       C  0.96169991  0.97775177  0.15559821    -0.22400
H3049       H  0.92613079  0.99820150  0.14575117     0.19400
H3050       H  0.94884402  0.94206165  0.10335466     0.18200
H3051       H  0.91549691  0.95437384  0.07959000     0.14500
H3052       H  0.96244743  0.98965607  0.16608062     0.14300
H3053       H  0.89695347  0.00073915  0.11785411     0.32500
H3054       H  0.97929506  0.94112069  0.13003790     0.35200
C3055       C  0.93137423  0.20869393  0.14817009     0.20800
C3056       C  0.92687466  0.21357950  0.12866815    -0.39000
C3057       C  0.93694270  0.20295029  0.11423652     0.19800
C3058       C  0.95060171  0.18865999  0.11889761     0.22500
C3059       C  0.95488787  0.18354663  0.13844925    -0.39500
C3060       C  0.94466073  0.19408439  0.15292431     0.21300
N3061       N  0.92357566  0.21653478  0.16444226    -0.32800
C3062       C  0.93164725  0.20672542  0.17975968    -0.10400
C3063       C  0.94491549  0.19255270  0.17319113    -0.29200
N3064       N  0.95834740  0.18092509  0.10248776    -0.45800
C3065       C  0.94943334  0.19022927  0.08728888    -0.05100
C3066       C  0.93588860  0.20399355  0.09403759    -0.22400
H3067       H  0.91624980  0.22480639  0.12500746     0.19400
H3068       H  0.96534680  0.17216542  0.14210547     0.18200
H3069       H  0.95339238  0.18240861  0.18199825     0.14500
H3070       H  0.92660533  0.21351534  0.08534677     0.14300
H3071       H  0.91296189  0.22757894  0.16507342     0.32500
H3072       H  0.96887438  0.16981421  0.10166177     0.35200
C3073       C  0.96669029  0.12288913  0.91824309     0.20800
C3074       C  0.96092711  0.14114918  0.92605596    -0.39000
C3075       C  0.96349769  0.14340617  0.94643110     0.19800
C3076       C  0.97152114  0.12866083  0.95787601     0.22500
C3077       C  0.97673486  0.11031676  0.95019820    -0.39500
C3078       C  0.97387300  0.10796464  0.93001284     0.21300
N3079       N  0.96686642  0.11736468  0.89927826    -0.32800
C3080       C  0.97386398  0.09871036  0.89915113    -0.10400
C3081       C  0.97820769  0.09228754  0.91804202    -0.29200
N3082       N  0.97336835  0.13454402  0.97653002    -0.45800
C3083       C  0.96617193  0.15305097  0.97728436    -0.05100
C3084       C  0.95962725  0.15911469  0.95880206    -0.22400
H3085       H  0.95517488  0.15280536  0.91692312     0.19400
H3086       H  0.98288800  0.09880562  0.95925894     0.18200
H3087       H  0.98463698  0.07839799  0.92230307     0.14500
H3088       H  0.95312034  0.17307734  0.95493932     0.14300
H3089       H  0.96277971  0.12581578  0.88715488     0.32500
H3090       H  0.97879472  0.12625156  0.98823767     0.35200
C3091       C  0.90606178  0.10581607  0.04677821     0.20800
C3092       C  0.88835882  0.09735994  0.05319711    -0.39000
C3093       C  0.88721091  0.07681471  0.05181044     0.19800
C3094       C  0.90241423  0.06570991  0.04419989     0.22500
C3095       C  0.92019285  0.07410185  0.03811713    -0.39500
C3096       C  0.92148721  0.09453948  0.03989509     0.21300
N3097       N  0.91083466  0.12496508  0.04650102    -0.32800
C3098       C  0.92955934  0.12579331  0.03982410    -0.10400
C3099       C  0.93673002  0.10711859  0.03559257    -0.29200
N3100       N  0.89765397  0.04662459  0.04400208    -0.45800
C3101       C  0.87943094  0.04539044  0.05184143    -0.05100
C3102       C  0.87240519  0.06392239  0.05703437    -0.22400
H3103       H  0.87641208  0.10611803  0.05891065     0.19400
H3104       H  0.93217679  0.06533365  0.03248996     0.18200
H3105       H  0.95101931  0.10332262  0.02980309     0.14500
H3106       H  0.85838420  0.06747001  0.06357656     0.14300
H3107       H  0.90201410  0.13673652  0.05080357     0.32500
H3108       H  0.90644831  0.03503874  0.03916305     0.35200
C3109       C  0.69671676  0.88640987  0.93778817     0.20800
C3110       C  0.70294631  0.90520621  0.93205863    -0.39000
C3111       C  0.69296927  0.92098660  0.94073032     0.19800
C3112       C  0.67809718  0.91821622  0.95427257     0.22500
C3113       C  0.67179756  0.89941184  0.95993373    -0.39500
C3114       C  0.68162126  0.88362131  0.95107882     0.21300
N3115       N  0.70319996  0.86911314  0.93092617    -0.32800
C3116       C  0.69201590  0.85517380  0.93966751    -0.10400
C3117       C  0.67842255  0.86364302  0.95243612    -0.29200
N3118       N  0.67074250  0.93554650  0.96012440    -0.45800
C3119       C  0.68082646  0.94946766  0.95009703    -0.05100
C3120       C  0.69484160  0.94095975  0.93783631    -0.22400
H3121       H  0.71444785  0.90737245  0.92132995     0.19400
H3122       H  0.65986096  0.89724543  0.97017559     0.18200
H3123       H  0.66733356  0.85623944  0.96105716     0.14500
H3124       H  0.70492890  0.94837070  0.92806640     0.14300
H3125       H  0.71410277  0.86695747  0.92037619     0.32500
H3126       H  0.65930496  0.93776606  0.97007735     0.35200
C3127       C  0.75279495  0.01010371  0.98960377     0.20800
C3128       C  0.77329425  0.00835122  0.98735902    -0.39000
C3129       C  0.78424615  0.00697121  0.00484592     0.19800
C3130       C  0.77535137  0.00753305  0.02308083     0.22500
C3131       C  0.75491652  0.00905333  0.02531155    -0.39500
C3132       C  0.74400047  0.01022138  0.00789418     0.21300
N3133       N  0.73910128  0.01100310  0.97536196    -0.32800
C3134       C  0.72145708  0.01143840  0.98463347    -0.10400
C3135       C  0.72395338  0.01096028  0.00496054    -0.29200
N3136       N  0.78873921  0.00568430  0.03741757    -0.45800
C3137       C  0.80638854  0.00364562  0.02845021    -0.05100
C3138       C  0.80421237  0.00438166  0.00803732    -0.22400
H3139       H  0.78016727  0.00779937  0.97305703     0.19400
H3140       H  0.74799311  0.00901991  0.03960235     0.18200
H3141       H  0.71261908  0.01075099  0.01607624     0.14500
H3142       H  0.81559418  0.00294655  0.99706605     0.14300
H3143       H  0.74156951  0.01066576  0.96023939     0.32500
H3144       H  0.78594772  0.00530416  0.05248601     0.35200
C3145       C  0.57885454  0.21362641  0.90698980     0.20800
C3146       C  0.59047302  0.22459149  0.89401711    -0.39000
C3147       C  0.58630721  0.22210219  0.87400931     0.19800
C3148       C  0.57182022  0.20949336  0.86738267     0.22500
C3149       C  0.56003465  0.19870990  0.88035796    -0.39500
C3150       C  0.56409652  0.20133105  0.90037469     0.21300
N3151       N  0.58044449  0.21274090  0.92665159    -0.32800
C3152       C  0.56651010  0.19987338  0.93257709    -0.10400
C3153       C  0.55596366  0.19253632  0.91662007    -0.29200
N3154       N  0.57171128  0.20870968  0.84766539    -0.45800
C3155       C  0.58614050  0.22102447  0.84174222    -0.05100
C3156       C  0.59545051  0.22977137  0.85772682    -0.22400
H3157       H  0.60217214  0.23404440  0.89910142     0.19400
H3158       H  0.54883136  0.18868769  0.87524276     0.18200
H3159       H  0.54429011  0.18177321  0.91685139     0.14500
H3160       H  0.60786022  0.23967388  0.85746571     0.14300
H3161       H  0.59053802  0.22019107  0.93545055     0.32500
H3162       H  0.56272595  0.20000492  0.83881477     0.35200
C3163       C  0.60951558  0.11266060  0.96275801     0.20800
C3164       C  0.61618137  0.09867791  0.94917352    -0.39000
C3165       C  0.63207656  0.08705963  0.95530293     0.19800
C3166       C  0.64038857  0.08891075  0.97374880     0.22500
C3167       C  0.63404031  0.10321424  0.98715432    -0.39500
C3168       C  0.61843223  0.11509757  0.98085137     0.21300
N3169       N  0.59431035  0.12511354  0.96069945    -0.32800
C3170       C  0.59385740  0.13581314  0.97744498    -0.10400
C3171       C  0.60872607  0.13009187  0.99029839    -0.29200
N3172       N  0.65339089  0.07440810  0.97700951    -0.45800
C3173       C  0.65364267  0.06345664  0.96039867    -0.05100
C3174       C  0.64071568  0.07104489  0.94645340    -0.22400
H3175       H  0.60916147  0.09661894  0.93507684     0.19400
H3176       H  0.64042257  0.10463554  0.00163022     0.18200
H3177       H  0.61190885  0.13606588  0.00466610     0.14500
H3178       H  0.63659373  0.06444303  0.93260907     0.14300
H3179       H  0.58514992  0.12660842  0.94849914     0.32500
H3180       H  0.66064786  0.07136426  0.99016847     0.35200
C3181       C  0.61686557  0.07714274  0.18585713     0.20800
C3182       C  0.63543007  0.07129927  0.17904361    -0.39000
C3183       C  0.65154242  0.08085537  0.18760653     0.19800
C3184       C  0.64928784  0.09496292  0.20203453     0.22500
C3185       C  0.63073364  0.10086975  0.20878136    -0.39500
C3186       C  0.61462252  0.09150022  0.20004216     0.21300
N3187       N  0.59929868  0.07127454  0.17910290    -0.32800
C3188       C  0.58576722  0.08220741  0.18876462    -0.10400
C3189       C  0.59475542  0.09489584  0.20208143    -0.29200
N3190       N  0.66679193  0.10221914  0.20743914    -0.45800
C3191       C  0.68032845  0.09284239  0.19627338    -0.05100
C3192       C  0.67138299  0.07937842  0.18369531    -0.22400
H3193       H  0.63717040  0.06049260  0.16754137     0.19400
H3194       H  0.62896415  0.11231551  0.21964367     0.18200
H3195       H  0.58775792  0.10571932  0.21135441     0.14500
H3196       H  0.67840859  0.06999794  0.17298490     0.14300
H3197       H  0.59671423  0.06115844  0.16788396     0.32500
H3198       H  0.66934639  0.11322290  0.21779633     0.35200
C3199       C  0.54132168  0.11700730  0.09291828     0.20800
C3200       C  0.53697324  0.11761620  0.07282603    -0.39000
C3201       C  0.54360805  0.13425493  0.06271314     0.19800
C3202       C  0.55416711  0.14907554  0.07172103     0.22500
C3203       C  0.55834143  0.14857879  0.09195616    -0.39500
C3204       C  0.55130862  0.13205867  0.10221448     0.21300
N3205       N  0.53593527  0.10309431  0.10583005    -0.32800
C3206       C  0.54211808  0.10946225  0.12360616    -0.10400
C3207       C  0.55177655  0.12748339  0.12197758    -0.29200
N3208       N  0.55893691  0.16317873  0.05863469    -0.45800
C3209       C  0.55099686  0.15734177  0.04131607    -0.05100
C3210       C  0.54135521  0.13941231  0.04335817    -0.22400
H3211       H  0.52874563  0.10609674  0.06563199     0.19400
H3212       H  0.56617933  0.16031319  0.09923140     0.18200
H3213       H  0.55795953  0.13620557  0.13371635     0.14500
H3214       H  0.53393862  0.13108349  0.03205081     0.14300
H3215       H  0.52780511  0.09044511  0.10286784     0.32500
H3216       H  0.56696347  0.17595205  0.06131217     0.35200
C3217       C  0.40334464  0.95591895  0.82263018     0.20800
C3218       C  0.39116219  0.94409781  0.81097198    -0.39000
C3219       C  0.37092877  0.94610331  0.81427194     0.19800
C3220       C  0.36336483  0.95883426  0.82817788     0.22500
C3221       C  0.37552453  0.97092222  0.83957602    -0.39500
C3222       C  0.39575349  0.96897922  0.83621445     0.21300
N3223       N  0.42308894  0.95580274  0.82329264    -0.32800
C3224       C  0.42807045  0.96897612  0.83732940    -0.10400
C3225       C  0.41142826  0.97762260  0.84555606    -0.29200
N3226       N  0.34372694  0.95710275  0.82931763    -0.45800
C3227       C  0.33877139  0.94325475  0.81593881    -0.05100
C3228       C  0.35531800  0.93617539  0.80617545    -0.22400
H3229       H  0.39701660  0.93370907  0.80048843     0.19400
H3230       H  0.36970313  0.98072731  0.85062562     0.18200
H3231       H  0.41087755  0.98817553  0.85741010     0.14500
H3232       H  0.35588367  0.92485285  0.79505573     0.14300
H3233       H  0.43255329  0.94701782  0.81504446     0.32500
H3234       H  0.33431946  0.96468926  0.83873727     0.35200
C3235       C  0.56667263  0.98907483  0.88747192     0.20800
C3236       C  0.58706542  0.98594237  0.88703316    -0.39000
C3237       C  0.59766947  0.99340679  0.90309962     0.19800
C3238       C  0.58860510  0.00299586  0.91854257     0.22500
C3239       C  0.56831837  0.00649942  0.91877028    -0.39500
C3240       C  0.55778101  0.99925340  0.90262957     0.21300
N3241       N  0.55320844  0.98294441  0.87433061    -0.32800
C3242       C  0.53568998  0.98956333  0.88107809    -0.10400
C3243       C  0.53799849  0.99983803  0.89863324    -0.29200
N3244       N  0.60170050  0.00764434  0.93256842    -0.45800
C3245       C  0.61929954  0.00120897  0.92593018    -0.05100
C3246       C  0.61742923  0.99245261  0.90749628    -0.22400
H3247       H  0.59412196  0.97804099  0.87520796     0.19400
H3248       H  0.56120427  0.01405351  0.93078878     0.18200
H3249       H  0.52662770  0.00647116  0.90751269     0.14500
H3250       H  0.62889683  0.98576758  0.89878691     0.14300
H3251       H  0.55575810  0.97480526  0.86160112     0.32500
H3252       H  0.59886500  0.01476627  0.94583883     0.35200
C3253       C  0.31418733  0.16525596  0.08773082     0.20800
C3254       C  0.30956322  0.14572576  0.09223545    -0.39000
C3255       C  0.32088955  0.13153481  0.08268249     0.19800
C3256       C  0.33546795  0.13650748  0.06943854     0.22500
C3257       C  0.34023482  0.15604259  0.06508457    -0.39500
C3258       C  0.32909462  0.17024292  0.07486281     0.21300
N3259       N  0.30603727  0.18137595  0.09541238    -0.32800
C3260       C  0.31599935  0.19672655  0.08765942    -0.10400
C3261       C  0.33050347  0.19043293  0.07471728    -0.29200
N3262       N  0.34415576  0.12037555  0.06239989    -0.45800
C3263       C  0.33524408  0.10505720  0.07139929    -0.05100
C3264       C  0.32066396  0.11136294  0.08422461    -0.22400
H3265       H  0.29820208  0.14189180  0.10264416     0.19400
H3266       H  0.35194673  0.15987838  0.05507248     0.18200
H3267       H  0.34084922  0.19935813  0.06662963     0.14500
H3268       H  0.31126652  0.10244492  0.09340531     0.14300
H3269       H  0.29478349  0.18188482  0.10580411     0.32500
H3270       H  0.35573804  0.11982455  0.05237734     0.35200
C3271       C  0.27344466  0.03703258  0.02508692     0.20800
C3272       C  0.25301602  0.03542225  0.02740504    -0.39000
C3273       C  0.24206523  0.03395336  0.01001930     0.19800
C3274       C  0.25083355  0.03400456  0.99171444     0.22500
C3275       C  0.27128290  0.03593472  0.98939035    -0.39500
C3276       C  0.28226145  0.03748064  0.00681117     0.21300
N3277       N  0.28694461  0.03869936  0.03934367    -0.32800
C3278       C  0.30456743  0.04039668  0.03023710    -0.10400
C3279       C  0.30225520  0.03979165  0.00985897    -0.29200
N3280       N  0.23715878  0.03296565  0.97749445    -0.45800
C3281       C  0.21952167  0.03251816  0.98675161    -0.05100
C3282       C  0.22201301  0.03307891  0.00708979    -0.22400
H3283       H  0.24613796  0.03549007  0.04171791     0.19400
H3284       H  0.27811514  0.03637520  0.97506468     0.18200
H3285       H  0.31360311  0.04092146  0.99881686     0.14500
H3286       H  0.21067442  0.03354836  0.01819333     0.14300
H3287       H  0.28427995  0.03898207  0.05443704     0.32500
H3288       H  0.23963007  0.03346430  0.96237583     0.35200
C3289       C  0.45145259  0.08557781  0.13157139     0.20800
C3290       C  0.44207899  0.09003781  0.11370608    -0.39000
C3291       C  0.42547922  0.07867487  0.10915021     0.19800
C3292       C  0.41856688  0.06424956  0.12165893     0.22500
C3293       C  0.42804531  0.05963485  0.13937762    -0.39500
C3294       C  0.44483372  0.07072566  0.14374335     0.21300
N3295       N  0.46856284  0.09284225  0.13822875    -0.32800
C3296       C  0.47309054  0.08231239  0.15450978    -0.10400
C3297       C  0.45863074  0.06836411  0.15839689    -0.29200
N3298       N  0.40280583  0.05530633  0.11390557    -0.45800
C3299       C  0.39978029  0.06379071  0.09615353    -0.05100
C3300       C  0.41363683  0.07847824  0.09264152    -0.22400
H3301       H  0.44770158  0.10107807  0.10376936     0.19400
H3302       H  0.42311116  0.04778435  0.14873232     0.18200
H3303       H  0.45895497  0.05701806  0.16951268     0.14500
H3304       H  0.41479925  0.08780621  0.07983791     0.14300
H3305       H  0.47751009  0.10308027  0.13115142     0.32500
H3306       H  0.39473702  0.04389169  0.12019367     0.35200
C3307       C  0.44489599  0.85142710  0.15489123     0.20800
C3308       C  0.45397972  0.86329409  0.14070016    -0.39000
C3309       C  0.45152001  0.85727079  0.12112649     0.19800
C3310       C  0.44063619  0.84086696  0.11607381     0.22500
C3311       C  0.43177052  0.82892723  0.13021529    -0.39500
C3312       C  0.43440831  0.83481484  0.14971203     0.21300
N3313       N  0.44448386  0.85414380  0.17448812    -0.32800
C3314       C  0.43374804  0.83900706  0.18166055    -0.10400
C3315       C  0.42732665  0.82668870  0.16665855    -0.29200
N3316       N  0.43969360  0.83878083  0.09650288    -0.45800
C3317       C  0.45024357  0.85384351  0.08903183    -0.05100
C3318       C  0.45795345  0.86562858  0.10389173    -0.22400
H3319       H  0.46215342  0.87634322  0.14457123     0.19400
H3320       H  0.42322140  0.81612451  0.12631857     0.18200
H3321       H  0.41825268  0.81371831  0.16796453     0.14500
H3322       H  0.46656767  0.87886700  0.10225491     0.14300
H3323       H  0.45087179  0.86559824  0.18240891     0.32500
H3324       H  0.43222635  0.82789885  0.08871156     0.35200
C3325       C  0.45344523  0.90488945  0.95297964     0.20800
C3326       C  0.44510193  0.91981108  0.94141878    -0.39000
C3327       C  0.45756259  0.92825816  0.92735018     0.19800
C3328       C  0.47673076  0.92202341  0.92482150     0.22500
C3329       C  0.48517909  0.90744328  0.93661186    -0.39500
C3330       C  0.47283427  0.89923524  0.95083227     0.21300
N3331       N  0.44520143  0.89560942  0.96832168    -0.32800
C3332       C  0.45958749  0.88436767  0.97624010    -0.10400
C3333       C  0.47700113  0.88621728  0.96569468    -0.29200
N3334       N  0.48540284  0.93195028  0.91021999    -0.45800
C3335       C  0.47182998  0.94485976  0.90361277    -0.05100
C3336       C  0.45427561  0.94314462  0.91396945    -0.22400
H3337       H  0.43014510  0.92472524  0.94347679     0.19400
H3338       H  0.50036922  0.90307803  0.93506957     0.18200
H3339       H  0.49116677  0.87999868  0.96929653     0.14500
H3340       H  0.44081379  0.95123093  0.91160677     0.14300
H3341       H  0.43123115  0.89810647  0.97410394     0.32500
H3342       H  0.49970772  0.93009880  0.90504075     0.35200
C3343       C  0.40417249  0.93691917  0.04913554     0.20800
C3344       C  0.38711589  0.94561003  0.05681451    -0.39000
C3345       C  0.38526881  0.96589833  0.05373705     0.19800
C3346       C  0.39919747  0.97650923  0.04344711     0.22500
C3347       C  0.41633176  0.96789343  0.03601689    -0.39500
C3348       C  0.41836389  0.94774205  0.03943967     0.21300
N3349       N  0.40935376  0.91791730  0.04996191    -0.32800
C3350       C  0.42710997  0.91675516  0.04107305    -0.10400
C3351       C  0.43327076  0.93505234  0.03437693    -0.29200
N3352       N  0.39414745  0.99547818  0.04247314    -0.45800
C3353       C  0.37707031  0.99714696  0.05249735    -0.05100
C3354       C  0.37100137  0.97900129  0.05979508    -0.22400
H3355       H  0.37618962  0.93722721  0.06471625     0.19400
H3356       H  0.42735036  0.97631217  0.02827904     0.18200
H3357       H  0.44657667  0.93848069  0.02642226     0.14500
H3358       H  0.35808442  0.97587875  0.06847799     0.14300
H3359       H  0.40135871  0.90643931  0.05622686     0.32500
H3360       H  0.40216298  0.00675456  0.03586970     0.35200
C3361       C  0.68946947  0.17107580  0.57869809     0.20800
C3362       C  0.67667435  0.15817998  0.56911606    -0.39000
C3363       C  0.67926639  0.13825954  0.57349091     0.19800
C3364       C  0.69330087  0.13162683  0.58662170     0.22500
C3365       C  0.70618040  0.14453759  0.59612988    -0.39500
C3366       C  0.70378185  0.16446079  0.59153401     0.21300
N3367       N  0.68956701  0.19075586  0.57759760    -0.32800
C3368       C  0.70413562  0.19665426  0.58974410    -0.10400
C3369       C  0.71342103  0.18070217  0.59857881    -0.29200
N3370       N  0.69251917  0.11197591  0.58842048    -0.45800
C3371       C  0.67805463  0.10615571  0.57609949    -0.05100
C3372       C  0.66945717  0.12210728  0.56659443    -0.22400
H3373       H  0.66547171  0.16327530  0.55906937     0.19400
H3374       H  0.71717859  0.13947191  0.60641145     0.18200
H3375       H  0.72504661  0.18101640  0.60939741     0.14500
H3376       H  0.65753093  0.12188930  0.55610269     0.14300
H3377       H  0.68000649  0.19962017  0.56952752     0.32500
H3378       H  0.70135437  0.10310199  0.59726541     0.35200
C3379       C  0.73539143  0.03496830  0.52552761     0.20800
C3380       C  0.75571595  0.03207392  0.52657562    -0.39000
C3381       C  0.76562389  0.03157808  0.50859867     0.19800
C3382       C  0.75604508  0.03362295  0.49080808     0.22500
C3383       C  0.73560380  0.03670133  0.48975796    -0.39500
C3384       C  0.72564302  0.03735942  0.50786926     0.21300
N3385       N  0.72294657  0.03656808  0.54066996    -0.32800
C3386       C  0.70503670  0.04015491  0.53281969    -0.10400
C3387       C  0.70607499  0.04079589  0.51232065    -0.29200
N3388       N  0.76907720  0.03345418  0.47591864    -0.45800
C3389       C  0.78703137  0.03161280  0.48441328    -0.05100
C3390       C  0.78540193  0.03032084  0.50474940    -0.22400
H3391       H  0.76333619  0.03072636  0.54044919     0.19400
H3392       H  0.72809372  0.03881560  0.47592275     0.18200
H3393       H  0.69423615  0.04364783  0.50212689     0.14500
H3394       H  0.79718965  0.02936016  0.51535217     0.14300
H3395       H  0.72653317  0.03568651  0.55555160     0.32500
H3396       H  0.76605178  0.03544572  0.46102346     0.35200
C3397       C  0.39915724  0.09542097  0.70118548     0.20800
C3398       C  0.38429800  0.10483116  0.71181644    -0.39000
C3399       C  0.36509814  0.09959202  0.70669637     0.19800
C3400       C  0.36100972  0.08614370  0.69201400     0.22500
C3401       C  0.37586848  0.07655835  0.68156780    -0.39500
C3402       C  0.39505798  0.08167217  0.68678959     0.21300
N3403       N  0.41854111  0.09864672  0.70242092    -0.32800
C3404       C  0.42675575  0.08676677  0.68878462    -0.10400
C3405       C  0.41263533  0.07583589  0.67886586    -0.29200
N3406       N  0.34159964  0.08468697  0.68906482    -0.45800
C3407       C  0.33332558  0.09722889  0.70203826    -0.05100
C3408       C  0.34746232  0.10667924  0.71339448    -0.22400
H3409       H  0.38743469  0.11576957  0.72289311     0.19400
H3410       H  0.37272054  0.06624743  0.66990905     0.18200
H3411       H  0.41488843  0.06562590  0.66691397     0.14500
H3412       H  0.34515884  0.11782163  0.72447334     0.14300
H3413       H  0.42569387  0.10857484  0.71164830     0.32500
H3414       H  0.33445978  0.07606238  0.67859997     0.35200
C3415       C  0.49873606  0.03738638  0.74871396     0.20800
C3416       C  0.50074508  0.01917387  0.75803468    -0.39000
C3417       C  0.49848947  0.01929651  0.77846089     0.19800
C3418       C  0.49442776  0.03622781  0.78892081     0.22500
C3419       C  0.49271277  0.05456548  0.77959665    -0.39500
C3420       C  0.49509746  0.05447328  0.75909003     0.21300
N3421       N  0.49855753  0.04079415  0.72930341    -0.32800
C3422       C  0.49489744  0.06021114  0.72721715    -0.10400
C3423       C  0.49288174  0.06932150  0.74546641    -0.29200
N3424       N  0.49135603  0.03204145  0.80801203    -0.45800
C3425       C  0.49354036  0.01231409  0.80959069    -0.05100
C3426       C  0.49815495  0.00394280  0.79150801    -0.22400
H3427       H  0.50317468  0.00575630  0.74989465     0.19400
H3428       H  0.48911800  0.06779379  0.78760910     0.18200
H3429       H  0.48909876  0.08448005  0.74831558     0.14500
H3430       H  0.50007917  0.98852911  0.78818691     0.14300
H3431       H  0.50015085  0.03042213  0.71813375     0.32500
H3432       H  0.48741227  0.04185234  0.81910092     0.35200
C3433       C  0.59131862  0.08059355  0.61813180     0.20800
C3434       C  0.57651015  0.09418185  0.62257737    -0.39000
C3435       C  0.56456578  0.08939839  0.63863304     0.19800
C3436       C  0.56701808  0.07220167  0.64920336     0.22500
C3437       C  0.58211079  0.05885558  0.64505361    -0.39500
C3438       C  0.59422923  0.06380259  0.62921341     0.21300
N3439       N  0.60376208  0.08109323  0.60285676    -0.32800
C3440       C  0.61484313  0.06467496  0.60446382    -0.10400
C3441       C  0.60949196  0.05360758  0.62080178    -0.29200
N3442       N  0.55205538  0.06956782  0.66170857    -0.45800
C3443       C  0.54013867  0.08527648  0.65926661    -0.05100
C3444       C  0.54756202  0.09813237  0.64521843    -0.22400
H3445       H  0.57395018  0.10709552  0.61368434     0.19400
H3446       H  0.58378302  0.04522561  0.65304489     0.18200
H3447       H  0.61556874  0.03970412  0.62551123     0.14500
H3448       H  0.54033382  0.11086692  0.63905026     0.14300
H3449       H  0.60471686  0.09192454  0.59204735     0.32500
H3450       H  0.54933058  0.05715423  0.67028745     0.35200
C3451       C  0.31903714  0.92067923  0.44075614     0.20800
C3452       C  0.30817656  0.90629624  0.43080068    -0.39000
C3453       C  0.31374806  0.88681092  0.43444179     0.19800
C3454       C  0.32912150  0.88205627  0.44685272     0.22500
C3455       C  0.33990923  0.89641971  0.45688040    -0.39500
C3456       C  0.33416904  0.91587270  0.45344321     0.21300
N3457       N  0.31692977  0.94025023  0.43950201    -0.32800
C3458       C  0.33069349  0.94790882  0.45163052    -0.10400
C3459       C  0.34168258  0.93317737  0.46064047    -0.29200
N3460       N  0.33192592  0.86255926  0.44734554    -0.45800
C3461       C  0.31815128  0.85482029  0.43528272    -0.05100
C3462       C  0.30649075  0.86947031  0.42699058    -0.22400
H3463       H  0.29635578  0.91000607  0.42086043     0.19400
H3464       H  0.35195377  0.89272646  0.46655643     0.18200
H3465       H  0.35385811  0.93492900  0.47068849     0.14500
H3466       H  0.29465794  0.86769566  0.41654717     0.14300
H3467       H  0.30687016  0.94792324  0.43084233     0.32500
H3468       H  0.34268917  0.85499626  0.45522161     0.35200
C3469       C  0.25891510  0.01254328  0.48987950     0.20800
C3470       C  0.23841552  0.01177626  0.48733514    -0.39000
C3471       C  0.22723235  0.01000800  0.50460925     0.19800
C3472       C  0.23587009  0.00932824  0.52297702     0.22500
C3473       C  0.25631749  0.00988799  0.52549931    -0.39500
C3474       C  0.26747196  0.01143292  0.50826187     0.21300
N3475       N  0.27279202  0.01319730  0.47581580    -0.32800
C3476       C  0.29030184  0.01222428  0.48529509    -0.10400
C3477       C  0.28754192  0.01115868  0.50556218    -0.29200
N3478       N  0.22221861  0.00707181  0.53701952    -0.45800
C3479       C  0.20470029  0.00598647  0.52763542    -0.05100
C3480       C  0.20721254  0.00777287  0.50735048    -0.22400
H3481       H  0.23169926  0.01206800  0.47294520     0.19400
H3482       H  0.26306961  0.00875195  0.53983265     0.18200
H3483       H  0.29870534  0.00972429  0.51676916     0.14500
H3484       H  0.19599269  0.00707515  0.49613435     0.14300
H3485       H  0.27048825  0.01346710  0.46066356     0.32500
H3486       H  0.22474206  0.00560868  0.55207126     0.35200
C3487       C  0.42284045  0.20996639  0.36969361     0.20800
C3488       C  0.41621250  0.21352180  0.38891047    -0.39000
C3489       C  0.42787010  0.20561862  0.40397279     0.19800
C3490       C  0.44477882  0.19507786  0.40003105     0.22500
C3491       C  0.45119769  0.19126271  0.38090136    -0.39500
C3492       C  0.43955426  0.19905246  0.36592742     0.21300
N3493       N  0.41464687  0.21606369  0.35281839    -0.32800
C3494       C  0.42614799  0.20873362  0.33833178    -0.10400
C3495       C  0.44175245  0.19797486  0.34590887    -0.29200
N3496       N  0.45340000  0.18926042  0.41668201    -0.45800
C3497       C  0.44193827  0.19596143  0.43146137    -0.05100
C3498       C  0.42577139  0.20622629  0.42416621    -0.22400
H3499       H  0.40304105  0.22187031  0.39189839     0.19400
H3500       H  0.46434150  0.18286676  0.37790712     0.18200
H3501       H  0.45322805  0.19052651  0.33784811     0.14500
H3502       H  0.41406167  0.21302094  0.43245466     0.14300
H3503       H  0.40190820  0.22443865  0.35122446     0.32500
H3504       H  0.46621212  0.18092749  0.41789878     0.35200
C3505       C  0.47191993  0.11895428  0.59307629     0.20800
C3506       C  0.47484171  0.11825476  0.57271722    -0.39000
C3507       C  0.47006465  0.13541989  0.56238861     0.19800
C3508       C  0.46255265  0.15194707  0.57150292     0.22500
C3509       C  0.45989134  0.15274379  0.59193704    -0.39500
C3510       C  0.46501270  0.13566449  0.60233833     0.21300
N3511       N  0.47593238  0.10477517  0.60622532    -0.32800
C3512       C  0.47194290  0.11264108  0.62404275    -0.10400
C3513       C  0.46505122  0.13185465  0.62221356    -0.29200
N3514       N  0.45848645  0.16604449  0.55821468    -0.45800
C3515       C  0.46377536  0.15845959  0.54059883    -0.05100
C3516       C  0.47115415  0.13947700  0.54266195    -0.22400
H3517       H  0.48054932  0.10533665  0.56545586     0.19400
H3518       H  0.45437181  0.16572979  0.59921771     0.18200
H3519       H  0.46103410  0.14182615  0.63389804     0.14500
H3520       H  0.47602196  0.12969730  0.53113522     0.14300
H3521       H  0.48176951  0.09090121  0.60332890     0.32500
H3522       H  0.45240432  0.17984930  0.56091744     0.35200
C3523       C  0.37333789  0.08624747  0.47536816     0.20800
C3524       C  0.38068903  0.09972988  0.48907389    -0.39000
C3525       C  0.39544897  0.11230480  0.48222155     0.19800
C3526       C  0.40263140  0.11133327  0.46324836     0.22500
C3527       C  0.39495186  0.09812664  0.44938348    -0.39500
C3528       C  0.37992409  0.08571917  0.45615785     0.21300
N3529       N  0.36091381  0.07135652  0.47888447    -0.32800
C3530       C  0.35935072  0.06134457  0.46177980    -0.10400
C3531       C  0.37076788  0.07003471  0.44715596    -0.29200
N3532       N  0.41730287  0.12431962  0.46069202    -0.45800
C3533       C  0.41915377  0.13381711  0.47807363    -0.05100
C3534       C  0.40570342  0.12683448  0.49179355    -0.22400
H3535       H  0.37566241  0.10004200  0.50413530     0.19400
H3536       H  0.40063814  0.09718998  0.43458716     0.18200
H3537       H  0.37364757  0.06438094  0.43259836     0.14500
H3538       H  0.40371005  0.13177350  0.50675522     0.14300
H3539       H  0.35492328  0.06743444  0.49243854     0.32500
H3540       H  0.42515474  0.12698331  0.44780385     0.35200
C3541       C  0.60775082  0.95184237  0.32445217     0.20800
C3542       C  0.62075973  0.94124832  0.31251911    -0.39000
C3543       C  0.64080602  0.94423464  0.31625665     0.19800
C3544       C  0.64747669  0.95669975  0.33084444     0.22500
C3545       C  0.63446998  0.96755178  0.34256128    -0.39500
C3546       C  0.61441992  0.96467188  0.33872364     0.21300
N3547       N  0.58799354  0.95102319  0.32439351    -0.32800
C3548       C  0.58208538  0.96362373  0.33859525    -0.10400
C3549       C  0.59813897  0.97245454  0.34775286    -0.29200
N3550       N  0.66719739  0.95602403  0.33219095    -0.45800
C3551       C  0.67307692  0.94309167  0.31826354    -0.05100
C3552       C  0.65704133  0.93559934  0.30795647    -0.22400
H3553       H  0.61566088  0.93112429  0.30140025     0.19400
H3554       H  0.63955951  0.97724429  0.35406328     0.18200
H3555       H  0.59790501  0.98283698  0.35976689     0.14500
H3556       H  0.65721692  0.92473914  0.29637245     0.14300
H3557       H  0.57911357  0.94243051  0.31533212     0.32500
H3558       H  0.67604808  0.96359876  0.34214606     0.35200
C3559       C  0.51540381  0.03026536  0.28681211     0.20800
C3560       C  0.51501988  0.04879781  0.27764394    -0.39000
C3561       C  0.51452810  0.04863244  0.25696373     0.19800
C3562       C  0.51454114  0.03132236  0.24633531     0.22500
C3563       C  0.51469063  0.01289947  0.25546424    -0.39500
C3564       C  0.51504612  0.01307415  0.27601269     0.21300
N3565       N  0.51703022  0.02627651  0.30615465    -0.32800
C3566       C  0.51756298  0.00640034  0.30752463    -0.10400
C3567       C  0.51623712  0.99774211  0.28904466    -0.29200
N3568       N  0.51566721  0.03494405  0.22699032    -0.45800
C3569       C  0.51636865  0.05471732  0.22510441    -0.05100
C3570       C  0.51547017  0.06381277  0.24349152    -0.22400
H3571       H  0.51563002  0.06231532  0.28595020     0.19400
H3572       H  0.51506321  0.99937803  0.24714495     0.18200
H3573       H  0.51681359  0.98225579  0.28556079     0.14500
H3574       H  0.51653091  0.07934476  0.24661907     0.14300
H3575       H  0.51806609  0.03638542  0.31762218     0.32500
H3576       H  0.51667565  0.02454860  0.21577446     0.35200
C3577       C  0.45287726  0.99180142  0.40177830     0.20800
C3578       C  0.44441732  0.99823487  0.41940503    -0.39000
C3579       C  0.42403836  0.99607263  0.42084019     0.19800
C3580       C  0.41288232  0.98842899  0.40569118     0.22500
C3581       C  0.42141047  0.98168169  0.38812860    -0.39500
C3582       C  0.44191208  0.98351999  0.38682760     0.21300
N3583       N  0.47194846  0.99212796  0.39702960    -0.32800
C3584       C  0.47336637  0.98368539  0.37908476    -0.10400
C3585       C  0.45491212  0.97803718  0.37218072    -0.29200
N3586       N  0.39374498  0.98860015  0.41047355    -0.45800
C3587       C  0.39277914  0.99611752  0.42888642    -0.05100
C3588       C  0.41139283  0.00083590  0.43590449    -0.22400
H3589       H  0.45309960  0.00443118  0.43117063     0.19400
H3590       H  0.41273549  0.97542505  0.37639273     0.18200
H3591       H  0.45149932  0.97087971  0.35842576     0.14500
H3592       H  0.41509857  0.00734040  0.44990992     0.14300
H3593       H  0.48343797  0.99733672  0.40573821     0.32500
H3594       H  0.38204504  0.98386662  0.40178011     0.35200
C3595       C  0.57208376  0.84144920  0.61937833     0.20800
C3596       C  0.58297799  0.83134369  0.63352048    -0.39000
C3597       C  0.57802364  0.83535278  0.65302110     0.19800
C3598       C  0.56356795  0.84866022  0.65821991     0.22500
C3599       C  0.55247956  0.85864351  0.64401402    -0.39500
C3600       C  0.55725470  0.85440831  0.62441481     0.21300
N3601       N  0.57439774  0.84063659  0.59984177    -0.32800
C3602       C  0.56081426  0.85303528  0.59235952    -0.10400
C3603       C  0.54978556  0.86184182  0.60718581    -0.29200
N3604       N  0.56253804  0.85053700  0.67787644    -0.45800
C3605       C  0.57631675  0.83809726  0.68501720    -0.05100
C3606       C  0.58612230  0.82834705  0.66999341    -0.22400
H3607       H  0.59462570  0.82126911  0.62963765     0.19400
H3608       H  0.54118323  0.86910267  0.64790474     0.18200
H3609       H  0.53828674  0.87267903  0.60557456     0.14500
H3610       H  0.59809687  0.81799160  0.67133429     0.14300
H3611       H  0.58474055  0.83238886  0.59210382     0.32500
H3612       H  0.55327064  0.85975915  0.68586568     0.35200
C3613       C  0.54033841  0.89759821  0.45361512     0.20800
C3614       C  0.52765686  0.90164845  0.43789073    -0.39000
C3615       C  0.53359602  0.91685500  0.42533823     0.19800
C3616       C  0.55058844  0.92752902  0.42851802     0.22500
C3617       C  0.56341915  0.92324008  0.44402626    -0.39500
C3618       C  0.55774852  0.90772040  0.45627879     0.21300
N3619       N  0.53737909  0.88490207  0.46841091    -0.32800
C3620       C  0.55322184  0.88668543  0.48029214    -0.10400
C3621       C  0.56630733  0.90065098  0.47316717    -0.29200
N3622       N  0.55246415  0.94185789  0.41509740    -0.45800
C3623       C  0.53676929  0.94002503  0.40306105    -0.05100
C3624       C  0.52471621  0.92453893  0.40887436    -0.22400
H3625       H  0.51403522  0.89376984  0.43577167     0.19400
H3626       H  0.57668572  0.93158532  0.44655789     0.18200
H3627       H  0.57944663  0.90605262  0.48026321     0.14500
H3628       H  0.51114184  0.91978861  0.40214015     0.14300
H3629       H  0.52499078  0.87619131  0.47075666     0.32500
H3630       H  0.56383862  0.95206720  0.41400441     0.35200
C3631       C  0.60635954  0.93829383  0.55713599     0.20800
C3632       C  0.62415168  0.94666806  0.56342607    -0.39000
C3633       C  0.62542116  0.96719204  0.56190597     0.19800
C3634       C  0.61018486  0.97835248  0.55440287     0.22500
C3635       C  0.59231196  0.97002942  0.54848652    -0.39500
C3636       C  0.59094597  0.94959666  0.55025924     0.21300
N3637       N  0.60181678  0.91913181  0.55616145    -0.32800
C3638       C  0.58332107  0.91825771  0.54884163    -0.10400
C3639       C  0.57596295  0.93697796  0.54514627    -0.29200
N3640       N  0.61517467  0.99737840  0.55366667    -0.45800
C3641       C  0.63363369  0.99849061  0.56102351    -0.05100
C3642       C  0.64054227  0.97997164  0.56647732    -0.22400
H3643       H  0.63619561  0.93784087  0.56883885     0.19400
H3644       H  0.58043424  0.97881938  0.54265766     0.18200
H3645       H  0.56192998  0.94077619  0.53875299     0.14500
H3646       H  0.65472165  0.97634948  0.57264678     0.14300
H3647       H  0.61085145  0.90733616  0.55994249     0.32500
H3648       H  0.60646513  0.00895895  0.54867292     0.35200
C3649       C  0.31635940  0.38285866  0.59064730     0.20800
C3650       C  0.31348348  0.40220362  0.59716065    -0.39000
C3651       C  0.32326798  0.41677586  0.58642986     0.19800
C3652       C  0.33487284  0.41231350  0.57037789     0.22500
C3653       C  0.33798513  0.39295676  0.56405352    -0.39500
C3654       C  0.32834280  0.37838274  0.57487832     0.21300
N3655       N  0.30896043  0.36643397  0.59854761    -0.32800
C3656       C  0.31652397  0.35136161  0.58799414    -0.10400
C3657       C  0.32870425  0.35819450  0.57305710    -0.29200
N3658       N  0.34241416  0.42869756  0.56254996    -0.45800
C3659       C  0.33573460  0.44374245  0.57371779    -0.05100
C3660       C  0.32379660  0.43691184  0.58887481    -0.22400
H3661       H  0.30437660  0.40562805  0.60970801     0.19400
H3662       H  0.34733018  0.38950746  0.55168958     0.18200
H3663       H  0.33688278  0.34958652  0.56251845     0.14500
H3664       H  0.31653091  0.44547226  0.60009860     0.14300
H3665       H  0.29979882  0.36548936  0.61079873     0.32500
H3666       H  0.35178210  0.42957084  0.55045087     0.35200
C3667       C  0.61880378  0.46805256  0.68839547     0.20800
C3668       C  0.63779611  0.47402095  0.68303020    -0.39000
C3669       C  0.65323660  0.46408157  0.69236041     0.19800
C3670       C  0.64988138  0.44960537  0.70621755     0.22500
C3671       C  0.63095122  0.44365290  0.71157519    -0.39500
C3672       C  0.61556758  0.45332184  0.70201539     0.21300
N3673       N  0.60176710  0.47400612  0.68048610    -0.32800
C3674       C  0.58768020  0.46272807  0.68885887    -0.10400
C3675       C  0.59568397  0.44978368  0.70251744    -0.29200
N3676       N  0.66683593  0.44186258  0.71241786    -0.45800
C3677       C  0.68116577  0.45123000  0.70233009    -0.05100
C3678       C  0.67331025  0.46526871  0.68964762    -0.22400
H3679       H  0.64034764  0.48507661  0.67191401     0.19400
H3680       H  0.62841332  0.43186174  0.72191529     0.18200
H3681       H  0.58809114  0.43870531  0.71099470     0.14500
H3682       H  0.68115657  0.47477393  0.67963636     0.14300
H3683       H  0.59993246  0.48441251  0.66937473     0.32500
H3684       H  0.66853109  0.43047607  0.72255103     0.35200
C3685       C  0.42570465  0.47088436  0.60954833     0.20800
C3686       C  0.44030685  0.45716346  0.61453596    -0.39000
C3687       C  0.45216250  0.46211475  0.63069928     0.19800
C3688       C  0.44980020  0.47955651  0.64084454     0.22500
C3689       C  0.43501022  0.49304990  0.63611132    -0.39500
C3690       C  0.42302606  0.48796303  0.62020570     0.21300
N3691       N  0.41275077  0.46989478  0.59463154    -0.32800
C3692       C  0.40157751  0.48630082  0.59613873    -0.10400
C3693       C  0.40752200  0.49786201  0.61191589    -0.29200
N3694       N  0.46430245  0.48201892  0.65394631    -0.45800
C3695       C  0.47591570  0.46597012  0.65237913    -0.05100
C3696       C  0.46870484  0.45306898  0.63819787    -0.22400
H3697       H  0.44259275  0.44387049  0.60615949     0.19400
H3698       H  0.43326601  0.50675396  0.64394417     0.18200
H3699       H  0.40125954  0.51165293  0.61669693     0.14500
H3700       H  0.47573132  0.43992584  0.63271458     0.14300
H3701       H  0.41122491  0.45855031  0.58444481     0.32500
H3702       H  0.46688504  0.49445246  0.66252947     0.35200
C3703       C  0.58167379  0.32770692  0.40732789     0.20800
C3704       C  0.59126780  0.31468473  0.39459192    -0.39000
C3705       C  0.58692366  0.31698574  0.37457929     0.19800
C3706       C  0.57404672  0.33117439  0.36776750     0.22500
C3707       C  0.56420355  0.34392049  0.38051173    -0.39500
C3708       C  0.56852283  0.34160763  0.40047452     0.21300
N3709       N  0.58390589  0.32922885  0.42690286    -0.32800
C3710       C  0.57191713  0.34409963  0.43244333    -0.10400
C3711       C  0.56206636  0.35209140  0.41639631    -0.29200
N3712       N  0.57389931  0.33167518  0.34805993    -0.45800
C3713       C  0.58682714  0.31774731  0.34230473    -0.05100
C3714       C  0.59500043  0.30805620  0.35839065    -0.22400
H3715       H  0.60181042  0.30400207  0.39979651     0.19400
H3716       H  0.55438240  0.35523452  0.37522777     0.18200
H3717       H  0.55174375  0.36416475  0.41637839     0.14500
H3718       H  0.60631092  0.29690467  0.35825218     0.14300
H3719       H  0.59291215  0.32068874  0.43590317     0.32500
H3720       H  0.56620751  0.34147963  0.33912502     0.35200
C3721       C  0.49175677  0.26077218  0.49621956     0.20800
C3722       C  0.48988013  0.28131007  0.49716680    -0.39000
C3723       C  0.50748824  0.29197939  0.49657937     0.19800
C3724       C  0.52555130  0.28278870  0.49540126     0.22500
C3725       C  0.52741202  0.26226641  0.49421006    -0.39500
C3726       C  0.50979468  0.25160656  0.49458550     0.21300
N3727       N  0.47722802  0.24747286  0.49599724    -0.32800
C3728       C  0.48595170  0.22967698  0.49398821    -0.10400
C3729       C  0.50632355  0.23164125  0.49304751    -0.29200
N3730       N  0.54004256  0.29611492  0.49482513    -0.45800
C3731       C  0.53123899  0.31396792  0.49534125    -0.05100
C3732       C  0.51087423  0.31201720  0.49640775    -0.22400
H3733       H  0.47572406  0.28845458  0.49801300     0.19400
H3734       H  0.54153888  0.25514777  0.49283430     0.18200
H3735       H  0.51707714  0.22010509  0.49119652     0.14500
H3736       H  0.50004760  0.32363121  0.49671019     0.14300
H3737       H  0.46219688  0.25038049  0.49668493     0.32500
H3738       H  0.55503900  0.29324141  0.49351608     0.35200
C3739       C  0.55339462  0.41395032  0.60116814     0.20800
C3740       C  0.56190563  0.39740215  0.59216253    -0.39000
C3741       C  0.55720095  0.39460280  0.57224341     0.19800
C3742       C  0.54471834  0.40717888  0.56230770     0.22500
C3743       C  0.53651299  0.42382075  0.57118452    -0.39500
C3744       C  0.54149383  0.42681288  0.59088899     0.21300
N3745       N  0.55492573  0.41957909  0.62005063    -0.32800
C3746       C  0.54421477  0.43630966  0.62159991    -0.10400
C3747       C  0.53575824  0.44135244  0.60369694    -0.29200
N3748       N  0.54255519  0.40152791  0.54359090    -0.45800
C3749       C  0.55399716  0.38542965  0.54129016    -0.05100
C3750       C  0.56338957  0.38057813  0.55888065    -0.22400
H3751       H  0.57147470  0.38748029  0.60005773     0.19400
H3752       H  0.52696680  0.43376224  0.56328214     0.18200
H3753       H  0.52595618  0.45349160  0.60071256     0.14500
H3754       H  0.57366279  0.36873510  0.56141346     0.14300
H3755       H  0.56254519  0.41238784  0.63124496     0.32500
H3756       H  0.53432905  0.40866781  0.53279513     0.35200
C3757       C  0.69192281  0.62738736  0.44182081     0.20800
C3758       C  0.70315830  0.64167843  0.43222827    -0.39000
C3759       C  0.69799305  0.66116843  0.43617341     0.19800
C3760       C  0.68263137  0.66608061  0.44852257     0.22500
C3761       C  0.67142847  0.65176737  0.45820704    -0.39500
C3762       C  0.67678361  0.63223922  0.45447060     0.21300
N3763       N  0.69377735  0.60784438  0.44030292    -0.32800
C3764       C  0.67988662  0.60017177  0.45224238    -0.10400
C3765       C  0.66898866  0.61490128  0.46137730    -0.29200
N3766       N  0.68023573  0.68564244  0.44919570    -0.45800
C3767       C  0.69425188  0.69316506  0.43726844    -0.05100
C3768       C  0.70566569  0.67837572  0.42896472    -0.22400
H3769       H  0.71497907  0.63789524  0.42232651     0.19400
H3770       H  0.65939256  0.65554706  0.46784676     0.18200
H3771       H  0.65678648  0.61314044  0.47138247     0.14500
H3772       H  0.71755263  0.67998340  0.41856030     0.14300
H3773       H  0.70385060  0.60018692  0.43165817     0.32500
H3774       H  0.66953515  0.69336678  0.45698331     0.35200
C3775       C  0.64128880  0.45914132  0.47129709     0.20800
C3776       C  0.63829141  0.44238128  0.48292878    -0.39000
C3777       C  0.62159283  0.43118545  0.47839772     0.19800
C3778       C  0.60860916  0.43650265  0.46370116     0.22500
C3779       C  0.61177100  0.45308856  0.45186903    -0.39500
C3780       C  0.62871358  0.46403860  0.45610392     0.21300
N3781       N  0.65513092  0.47303906  0.47363811    -0.32800
C3782       C  0.65160340  0.48664475  0.45955619    -0.10400
C3783       C  0.63530806  0.48149945  0.44829525    -0.29200
N3784       N  0.59344283  0.42387255  0.46286838    -0.45800
C3785       C  0.59699987  0.41020881  0.47689520    -0.05100
C3786       C  0.61445049  0.41423908  0.48683153    -0.22400
H3787       H  0.64805534  0.43852188  0.49484982     0.19400
H3788       H  0.60161300  0.45734972  0.44042315     0.18200
H3789       H  0.62823367  0.49024313  0.43706770     0.14500
H3790       H  0.62092512  0.40596378  0.49874928     0.14300
H3791       H  0.66569318  0.47374751  0.48472363     0.32500
H3792       H  0.58158568  0.42432321  0.45316544     0.35200
C3793       C  0.39843303  0.57868285  0.34049771     0.20800
C3794       C  0.37901437  0.57586852  0.34662634    -0.39000
C3795       C  0.36480295  0.58617027  0.33597011     0.19800
C3796       C  0.36962319  0.59826215  0.32036406     0.22500
C3797       C  0.38907443  0.60130612  0.31441315    -0.39500
C3798       C  0.40330053  0.59107260  0.32513893     0.21300
N3799       N  0.41457243  0.57063904  0.34830434    -0.32800
C3800       C  0.42982905  0.57810954  0.33800859    -0.10400
C3801       C  0.42344695  0.59097635  0.32345090    -0.29200
N3802       N  0.35346786  0.60637769  0.31265399    -0.45800
C3803       C  0.33829495  0.59954550  0.32352495    -0.05100
C3804       C  0.34473796  0.58692022  0.33825090    -0.22400
H3805       H  0.37526920  0.56640687  0.35882362     0.19400
H3806       H  0.39284073  0.61097926  0.30238887     0.18200
H3807       H  0.43232491  0.59921336  0.31317948     0.14500
H3808       H  0.33597275  0.57947025  0.34919718     0.14300
H3809       H  0.41521054  0.56100706  0.36022012     0.32500
H3810       H  0.35283449  0.61625939  0.30094405     0.35200
C3811       C  0.55955583  0.54954041  0.39845776     0.20800
C3812       C  0.56815675  0.54228654  0.41570597    -0.39000
C3813       C  0.58786488  0.54729897  0.41864911     0.19800
C3814       C  0.59833739  0.55831692  0.40517968     0.22500
C3815       C  0.58962184  0.56587313  0.38804688    -0.39500
C3816       C  0.56973510  0.56120020  0.38530816     0.21300
N3817       N  0.54087922  0.54731243  0.39272315    -0.32800
C3818       C  0.53889786  0.55795752  0.37603864    -0.10400
C3819       C  0.55660128  0.56687227  0.37088075    -0.29200
N3820       N  0.61707780  0.56028954  0.41099911    -0.45800
C3821       C  0.61841377  0.55078048  0.42844640    -0.05100
C3822       C  0.60046747  0.54259453  0.43378342    -0.22400
H3823       H  0.56003768  0.53349238  0.42614433     0.19400
H3824       H  0.59768671  0.57482958  0.37770696     0.18200
H3825       H  0.55934976  0.57652868  0.35857413     0.14500
H3826       H  0.59729987  0.53373703  0.44658298     0.14300
H3827       H  0.52987622  0.53970842  0.40021003     0.32500
H3828       H  0.62832292  0.56753585  0.40352426     0.35200
C3829       C  0.44536809  0.70606380  0.61538214     0.20800
C3830       C  0.43358774  0.71609009  0.62884181    -0.39000
C3831       C  0.43703822  0.71169068  0.64859257     0.19800
C3832       C  0.45094250  0.69813263  0.65460974     0.22500
C3833       C  0.46288360  0.68819724  0.64111447    -0.39500
C3834       C  0.45960276  0.69280121  0.62130034     0.21300
N3835       N  0.44432216  0.70700844  0.59573924    -0.32800
C3836       C  0.45807564  0.69433513  0.58911215    -0.10400
C3837       C  0.46801497  0.68530530  0.60457451    -0.29200
N3838       N  0.45069696  0.69609015  0.67426026    -0.45800
C3839       C  0.43667012  0.70865786  0.68061701    -0.05100
C3840       C  0.42791860  0.71863207  0.66507364    -0.22400
H3841       H  0.42237438  0.72637216  0.62426766     0.19400
H3842       H  0.47370939  0.67749906  0.64566193     0.18200
H3843       H  0.47923344  0.67409803  0.60366915     0.14500
H3844       H  0.41610979  0.72923679  0.66574338     0.14300
H3845       H  0.43452752  0.71533468  0.58738167     0.32500
H3846       H  0.45940390  0.68675929  0.68275537     0.35200
C3847       C  0.49601134  0.75976251  0.51849627     0.20800
C3848       C  0.49267055  0.78010313  0.51779485    -0.39000
C3849       C  0.50940893  0.79199918  0.51926762     0.19800
C3850       C  0.52808042  0.78418666  0.52094806     0.22500
C3851       C  0.53140365  0.76384262  0.52179076    -0.39500
C3852       C  0.51463001  0.75194402  0.52063364     0.21300
N3853       N  0.48243706  0.74548011  0.51881490    -0.32800
C3854       C  0.49237955  0.72842986  0.52147119    -0.10400
C3855       C  0.51254121  0.73185351  0.52259784    -0.29200
N3856       N  0.54141639  0.79853993  0.52315328    -0.45800
C3857       C  0.53116601  0.81560160  0.52330251    -0.05100
C3858       C  0.51114411  0.81213973  0.52079925    -0.22400
H3859       H  0.47804236  0.78621798  0.51689025     0.19400
H3860       H  0.54591994  0.75775495  0.52388840     0.18200
H3861       H  0.52401309  0.72121080  0.52531126     0.14500
H3862       H  0.49940680  0.82283802  0.52082142     0.14300
H3863       H  0.46723445  0.74732158  0.51821215     0.32500
H3864       H  0.55647241  0.79678386  0.52541384     0.35200
C3865       C  0.47396492  0.62947891  0.46056246     0.20800
C3866       C  0.47946579  0.61124288  0.45291327    -0.39000
C3867       C  0.47586955  0.60856645  0.43291553     0.19800
C3868       C  0.46777109  0.62310994  0.42125725     0.22500
C3869       C  0.46172859  0.64127062  0.42907319    -0.39500
C3870       C  0.46500695  0.64382872  0.44929877     0.21300
N3871       N  0.47627187  0.63556141  0.47906773    -0.32800
C3872       C  0.46838491  0.65375669  0.47992085    -0.10400
C3873       C  0.46101161  0.65948648  0.46166409    -0.29200
N3874       N  0.46735103  0.61732269  0.40237971    -0.45800
C3875       C  0.47491552  0.59889302  0.40225281    -0.05100
C3876       C  0.48016467  0.59285706  0.42102335    -0.22400
H3877       H  0.48631276  0.60003577  0.46185757     0.19400
H3878       H  0.45522197  0.65261623  0.42005614     0.18200
H3879       H  0.45391449  0.67319798  0.45794155     0.14500
H3880       H  0.48708856  0.57918901  0.42522518     0.14300
H3881       H  0.48245221  0.62758940  0.49062432     0.32500
H3882       H  0.46245963  0.62543156  0.39032103     0.35200
C3883       C  0.40986270  0.60999664  0.55345667     0.20800
C3884       C  0.39112384  0.60254207  0.55787463    -0.39000
C3885       C  0.38914616  0.58204287  0.55684685     0.19800
C3886       C  0.40463090  0.57004749  0.55149734     0.22500
C3887       C  0.42343668  0.57744239  0.54752767    -0.39500
C3888       C  0.42547416  0.59786330  0.54882460     0.21300
N3889       N  0.41523633  0.62893174  0.55218955    -0.32800
C3890       C  0.43442849  0.62884005  0.54691250    -0.10400
C3891       C  0.44141462  0.60972042  0.54490576    -0.29200
N3892       N  0.39889355  0.55124385  0.55076699    -0.45800
C3893       C  0.37972295  0.55107388  0.55603949    -0.05100
C3894       C  0.37307749  0.57002211  0.56010342    -0.22400
H3895       H  0.37892278  0.61202419  0.56152665     0.19400
H3896       H  0.43551341  0.56799930  0.54338559     0.18200
H3897       H  0.45586305  0.60515871  0.54015928     0.14500
H3898       H  0.35850386  0.57439859  0.56462298     0.14300
H3899       H  0.40628185  0.64118962  0.55431281     0.32500
H3900       H  0.40762399  0.53913336  0.54728316     0.35200
C3901       C  0.69474309  0.41584295  0.08141547     0.20800
C3902       C  0.70607239  0.40357679  0.09347429    -0.39000
C3903       C  0.70395713  0.38338500  0.09015529     0.19800
C3904       C  0.69135902  0.37599346  0.07603624     0.22500
C3905       C  0.68013993  0.38826429  0.06387315    -0.39500
C3906       C  0.68238673  0.40846719  0.06707506     0.21300
N3907       N  0.69341767  0.43548098  0.08230162    -0.32800
C3908       C  0.68015118  0.44066330  0.06842201    -0.10400
C3909       C  0.67305751  0.42423590  0.05848336    -0.29200
N3910       N  0.69143128  0.35628895  0.07629409    -0.45800
C3911       C  0.70428583  0.35110036  0.09055418    -0.05100
C3912       C  0.71246419  0.36758545  0.09950047    -0.22400
H3913       H  0.71560280  0.40932445  0.10480217     0.19400
H3914       H  0.67016435  0.38249866  0.05294494     0.18200
H3915       H  0.66195394  0.42382964  0.04713288     0.14500
H3916       H  0.72287592  0.36794328  0.11149051     0.14300
H3917       H  0.70067857  0.44474627  0.09211473     0.32500
H3918       H  0.68318070  0.34693814  0.06738641     0.35200
C3919       C  0.57823646  0.71346909  0.15136943     0.20800
C3920       C  0.58137299  0.71962923  0.13197899    -0.39000
C3921       C  0.57274674  0.70793245  0.11746655     0.19800
C3922       C  0.56162806  0.69155251  0.12203330     0.22500
C3923       C  0.55866696  0.68527747  0.14140071    -0.39500
C3924       C  0.56747270  0.69684439  0.15589408     0.21300
N3925       N  0.58553034  0.72160751  0.16769757    -0.32800
C3926       C  0.57961245  0.70995874  0.18268880    -0.10400
C3927       C  0.56821752  0.69438678  0.17596231    -0.29200
N3928       N  0.55498768  0.68294370  0.10567977    -0.45800
C3929       C  0.56211253  0.69373318  0.09059158    -0.05100
C3930       C  0.57336128  0.70942438  0.09728452    -0.22400
H3931       H  0.59012569  0.73240343  0.12846045     0.19400
H3932       H  0.55033887  0.67221479  0.14489305     0.18200
H3933       H  0.56184636  0.68261042  0.18450337     0.14500
H3934       H  0.58087797  0.72039259  0.08860216     0.14300
H3935       H  0.59453606  0.73398162  0.16852751     0.32500
H3936       H  0.54643410  0.67025476  0.10480366     0.35200
C3937       C  0.48631210  0.78269495  0.02396134     0.20800
C3938       C  0.48335832  0.76232439  0.02566230    -0.39000
C3939       C  0.50035036  0.75065067  0.02496954     0.19800
C3940       C  0.51881831  0.75871441  0.02255901     0.22500
C3941       C  0.52179684  0.77908389  0.02112503    -0.39500
C3942       C  0.50484199  0.79075415  0.02203644     0.21300
N3943       N  0.47264522  0.79690810  0.02485289    -0.32800
C3944       C  0.48252373  0.81416725  0.02383687    -0.10400
C3945       C  0.50266864  0.81092968  0.02206707    -0.29200
N3946       N  0.53260802  0.74461845  0.02275726    -0.45800
C3947       C  0.52298562  0.72740537  0.02554970    -0.05100
C3948       C  0.50278419  0.73057171  0.02701290    -0.22400
H3949       H  0.46891695  0.75605598  0.02770394     0.19400
H3950       H  0.53629927  0.78539711  0.01975634     0.18200
H3951       H  0.51417192  0.82184558  0.02130703     0.14500
H3952       H  0.49148424  0.71973655  0.02964497     0.14300
H3953       H  0.45756408  0.79500657  0.02678428     0.32500
H3954       H  0.54775744  0.74666004  0.02168798     0.35200
C3955       C  0.59129150  0.59827542  0.05267822     0.20800
C3956       C  0.59070602  0.57787508  0.05521714    -0.39000
C3957       C  0.60896675  0.56854192  0.05680206     0.19800
C3958       C  0.62655048  0.57871786  0.05629447     0.22500
C3959       C  0.62714032  0.59914779  0.05356722    -0.39500
C3960       C  0.60883583  0.60846591  0.05165621     0.21300
N3961       N  0.57595057  0.61041671  0.05010502    -0.32800
C3962       C  0.58377493  0.62844900  0.04717238    -0.10400
C3963       C  0.60423377  0.62782672  0.04802938    -0.29200
N3964       N  0.64186515  0.56627647  0.05768407    -0.45800
C3965       C  0.63383124  0.54811232  0.05864149    -0.05100
C3966       C  0.61343671  0.54893186  0.05817386    -0.22400
H3967       H  0.57704098  0.56979607  0.05550118     0.19400
H3968       H  0.64082407  0.60714055  0.05260890     0.18200
H3969       H  0.61436422  0.63988833  0.04602862     0.14500
H3970       H  0.60327378  0.53673214  0.05848911     0.14300
H3971       H  0.56111265  0.60659862  0.04986311     0.32500
H3972       H  0.65676623  0.56981240  0.05725939     0.35200
C3973       C  0.39409802  0.46066303  0.19449361     0.20800
C3974       C  0.37526237  0.46821653  0.19127785    -0.39000
C3975       C  0.35988058  0.45763114  0.19974712     0.19800
C3976       C  0.36301201  0.44093139  0.21088942     0.22500
C3977       C  0.38193592  0.43325193  0.21400641    -0.39500
C3978       C  0.39739072  0.44373762  0.20524564     0.21300
N3979       N  0.41086863  0.46744331  0.18687330    -0.32800
C3980       C  0.42505302  0.45468749  0.19244866    -0.10400
C3981       C  0.41728157  0.43969406  0.20408871    -0.29200
N3982       N  0.34580518  0.43322837  0.21669493    -0.45800
C3983       C  0.33172290  0.44495490  0.20888451    -0.05100
C3984       C  0.33993161  0.46032952  0.19824208    -0.22400
H3985       H  0.37273287  0.48108563  0.18230918     0.19400
H3986       H  0.38437573  0.41983174  0.22214937     0.18200
H3987       H  0.42496099  0.42720853  0.21020780     0.14500
H3988       H  0.33231739  0.47165515  0.19010629     0.14300
H3989       H  0.41242816  0.47963488  0.17770305     0.32500
H3990       H  0.34373415  0.42036612  0.22477648     0.35200
C3991       C  0.49339983  0.49601039  0.25138468     0.20800
C3992       C  0.49148923  0.49440693  0.27186158    -0.39000
C3993       C  0.49324833  0.51197525  0.28246677     0.19800
C3994       C  0.49683412  0.52977279  0.27336961     0.22500
C3995       C  0.49850040  0.53141898  0.25284377    -0.39500
C3996       C  0.49651459  0.51385384  0.24219959     0.21300
N3997       N  0.49140358  0.48160298  0.23806865    -0.32800
C3998       C  0.49288169  0.49027700  0.22020512    -0.10400
C3999       C  0.49608975  0.51043474  0.22217086    -0.29200
N4000       N  0.49727361  0.54437056  0.28665889    -0.45800
C4001       C  0.49369926  0.53587282  0.30432449    -0.05100
C4002       C  0.49113719  0.51565347  0.30229078    -0.22400
H4003       H  0.48842608  0.48054169  0.27897983     0.19400
H4004       H  0.50071324  0.54541419  0.24566583     0.18200
H4005       H  0.49734614  0.52118870  0.21054948     0.14500
H4006       H  0.48766479  0.50515572  0.31369385     0.14300
H4007       H  0.48829152  0.46687018  0.24094337     0.32500
H4008       H  0.49919253  0.55930787  0.28379994     0.35200
C4009       C  0.58143719  0.47693071  0.10170354     0.20800
C4010       C  0.56085933  0.47659595  0.10158119    -0.39000
C4011       C  0.55185486  0.47179514  0.11946441     0.19800
C4012       C  0.56244435  0.46730912  0.13621699     0.22500
C4013       C  0.58309546  0.46801423  0.13642572    -0.39500
C4014       C  0.59214580  0.47312903  0.11854676     0.21300
N4015       N  0.59337601  0.48139331  0.08663165    -0.32800
C4016       C  0.61187041  0.48080560  0.09392223    -0.10400
C4017       C  0.61170861  0.47575098  0.11381266    -0.29200
N4018       N  0.55026174  0.46322416  0.15131474    -0.45800
C4019       C  0.53184859  0.46555662  0.14409978    -0.05100
C4020       C  0.53230749  0.47092684  0.12435379    -0.22400
H4021       H  0.55244940  0.48004690  0.08855171     0.19400
H4022       H  0.59148977  0.46501520  0.14957135     0.18200
H4023       H  0.62420741  0.47429294  0.12349998     0.14500
H4024       H  0.51991493  0.47395435  0.11488370     0.14300
H4025       H  0.58917404  0.48515625  0.07237384     0.32500
H4026       H  0.55419346  0.45975203  0.16571748     0.35200
C4027       C  0.44637052  0.34133322  0.90089202     0.20800
C4028       C  0.45363776  0.34594573  0.88216414    -0.39000
C4029       C  0.44339791  0.33772371  0.86632228     0.19800
C4030       C  0.42737803  0.32553594  0.86899795     0.22500
C4031       C  0.42005569  0.32100297  0.88773085    -0.39500
C4032       C  0.43009697  0.32949056  0.90357072     0.21300
N4033       N  0.45268489  0.34839772  0.91814858    -0.32800
C4034       C  0.44020192  0.34130146  0.93192821    -0.10400
C4035       C  0.42595812  0.32931378  0.92342741    -0.29200
N4036       N  0.41982587  0.32012028  0.85162265    -0.45800
C4037       C  0.43087701  0.32916333  0.83777277    -0.05100
C4038       C  0.44577123  0.34027153  0.84635556    -0.22400
H4039       H  0.46597859  0.35571518  0.88007452     0.19400
H4040       H  0.40713597  0.31200749  0.88978228     0.18200
H4041       H  0.41381914  0.32208888  0.93067101     0.14500
H4042       H  0.45661111  0.34924791  0.83900483     0.14300
H4043       H  0.46430097  0.35815552  0.92032172     0.32500
H4044       H  0.40747992  0.31133842  0.84932417     0.35200
C4045       C  0.49785343  0.28971031  0.00131165     0.20800
C4046       C  0.51653670  0.28106739  0.00148752    -0.39000
C4047       C  0.51694088  0.26050956  0.00019709     0.19800
C4048       C  0.50007114  0.24931940  0.99861508     0.22500
C4049       C  0.48133941  0.25796674  0.99862972    -0.39500
C4050       C  0.48092045  0.27855568  0.00014836     0.21300
N4051       N  0.49359847  0.30900547  0.00107801    -0.32800
C4052       C  0.47378915  0.31018096  0.99984606    -0.10400
C4053       C  0.46537090  0.29148742  0.99943898    -0.29200
N4054       N  0.50455093  0.23013612  0.99659381    -0.45800
C4055       C  0.52442859  0.22915999  0.99709522    -0.05100
C4056       C  0.53260132  0.24780628  0.99937280    -0.22400
H4057       H  0.52981972  0.28973834  0.00216216     0.19400
H4058       H  0.46808696  0.24935055  0.99715472     0.18200
H4059       H  0.45001022  0.28786981  0.99768639     0.14500
H4060       H  0.54801132  0.25161043  0.99980750     0.14300
H4061       H  0.50357655  0.32063479  0.00102857     0.32500
H4062       H  0.49474914  0.21850433  0.99475794     0.35200
C4063       C  0.44984219  0.38854486  0.07271511     0.20800
C4064       C  0.45391350  0.38706929  0.09293265    -0.39000
C4065       C  0.45723440  0.40494399  0.10278470     0.19800
C4066       C  0.45640039  0.42285416  0.09322020     0.22500
C4067       C  0.45265762  0.42430206  0.07305696    -0.39500
C4068       C  0.44949688  0.40652183  0.06324351     0.21300
N4069       N  0.44703360  0.37380925  0.05976940    -0.32800
C4070       C  0.44521259  0.38261169  0.04199246    -0.10400
C4071       C  0.44669183  0.40292451  0.04361642    -0.29200
N4072       N  0.46020715  0.43766609  0.10565456    -0.45800
C4073       C  0.46374475  0.42923940  0.12330523    -0.05100
C4074       C  0.46207215  0.40881097  0.12212198    -0.22400
H4075       H  0.45472709  0.37305878  0.10037272     0.19400
H4076       H  0.45252931  0.43826543  0.06548008     0.18200
H4077       H  0.44648599  0.41358570  0.03183427     0.14500
H4078       H  0.46423290  0.39824536  0.13378657     0.14300
H4079       H  0.44740654  0.35876044  0.06265273     0.32500
H4080       H  0.46079057  0.45260043  0.10223992     0.35200
C4081       C  0.31625168  0.62332823  0.93696843     0.20800
C4082       C  0.30785650  0.63774438  0.92492265    -0.39000
C4083       C  0.31252000  0.65718450  0.92972902     0.19800
C4084       C  0.32474276  0.66194367  0.94524712     0.22500
C4085       C  0.33295510  0.64750887  0.95745601    -0.39500
C4086       C  0.32820495  0.62803473  0.95271217     0.21300
N4087       N  0.31504425  0.60379426  0.93472356    -0.32800
C4088       C  0.32632447  0.59597849  0.94911220    -0.10400
C4089       C  0.33462134  0.61061666  0.96077374    -0.29200
N4090       N  0.32746026  0.68147528  0.94624247    -0.45800
C4091       C  0.31668012  0.68915084  0.93139077    -0.05100
C4092       C  0.30713742  0.67447126  0.92080648    -0.22400
H4093       H  0.29867127  0.63407969  0.91249399     0.19400
H4094       H  0.34265302  0.65114425  0.96949422     0.18200
H4095       H  0.34472157  0.60877476  0.97289418     0.14500
H4096       H  0.29775733  0.67622167  0.90810415     0.14300
H4097       H  0.30754522  0.59626091  0.92368177     0.32500
H4098       H  0.33601378  0.68910711  0.95641183     0.35200
C4099       C  0.38183938  0.46265848  0.95430713     0.20800
C4100       C  0.40062618  0.45428579  0.95405373    -0.39000
C4101       C  0.40205836  0.43531518  0.96180357     0.19800
C4102       C  0.38595698  0.42537044  0.96915046     0.22500
C4103       C  0.36711340  0.43379649  0.96948971    -0.39500
C4104       C  0.36568828  0.45288851  0.96181835     0.21300
N4105       N  0.37711609  0.48109003  0.94935636    -0.32800
C4106       C  0.35790311  0.48324943  0.95382765    -0.10400
C4107       C  0.35014620  0.46597363  0.96160507    -0.29200
N4108       N  0.39134192  0.40769035  0.97605986    -0.45800
C4109       C  0.41100181  0.40643990  0.97315264    -0.05100
C4110       C  0.41821620  0.42341136  0.96431743    -0.22400
H4111       H  0.41330826  0.46219314  0.94869139     0.19400
H4112       H  0.35462071  0.42625940  0.97575007     0.18200
H4113       H  0.33560751  0.46375433  0.96757916     0.14500
H4114       H  0.43324711  0.42662533  0.96034534     0.14300
H4115       H  0.38669017  0.49200853  0.94443829     0.32500
H4116       H  0.38223968  0.39718784  0.98251920     0.35200
C4117       C  0.61370057  0.57705570  0.84071910     0.20800
C4118       C  0.63327362  0.57455206  0.84649499    -0.39000
C4119       C  0.64706575  0.58572673  0.83618805     0.19800
C4120       C  0.64175958  0.59827442  0.82111005     0.22500
C4121       C  0.62212570  0.60096221  0.81545125    -0.39500
C4122       C  0.60828525  0.58993127  0.82594894     0.21300
N4123       N  0.59786990  0.56861763  0.84875288    -0.32800
C4124       C  0.58221406  0.57637386  0.83930077    -0.10400
C4125       C  0.58806510  0.58973497  0.82492867    -0.29200
N4126       N  0.65762729  0.60731143  0.81377546    -0.45800
C4127       C  0.67307526  0.60063308  0.82441548    -0.05100
C4128       C  0.66709165  0.58715591  0.83855268    -0.22400
H4129       H  0.63741970  0.56482758  0.85835433     0.19400
H4130       H  0.61792849  0.61110770  0.80396551     0.18200
H4131       H  0.57879157  0.59842750  0.81539693     0.14500
H4132       H  0.67613746  0.57953400  0.84915503     0.14300
H4133       H  0.59768347  0.55874760  0.86048684     0.32500
H4134       H  0.65789675  0.61766136  0.80246376     0.35200
C4135       C  0.51640395  0.51350778  0.78518214     0.20800
C4136       C  0.51646763  0.49533902  0.77542740    -0.39000
C4137       C  0.51670330  0.49622714  0.75482000     0.19800
C4138       C  0.51713053  0.51386409  0.74473538     0.22500
C4139       C  0.51684803  0.53199739  0.75446811    -0.39500
C4140       C  0.51631832  0.53110728  0.77502506     0.21300
N4141       N  0.51726445  0.51670271  0.80466628    -0.32800
C4142       C  0.51750000  0.53648156  0.80687105    -0.10400
C4143       C  0.51679058  0.54593305  0.78872527    -0.29200
N4144       N  0.51871388  0.51079156  0.72531457    -0.45800
C4145       C  0.51915317  0.49105068  0.72295040    -0.05100
C4146       C  0.51777914  0.48145557  0.74101364    -0.22400
H4147       H  0.51675229  0.48154101  0.78329357     0.19400
H4148       H  0.51742033  0.54579739  0.74661951     0.18200
H4149       H  0.51748479  0.56155342  0.78592150     0.14500
H4150       H  0.51845643  0.46582068  0.74373052     0.14300
H4151       H  0.51808176  0.50612410  0.81573318     0.32500
H4152       H  0.51996568  0.52146883  0.71438297     0.35200
C4153       C  0.42087028  0.54679547  0.91842133     0.20800
C4154       C  0.44107039  0.54287139  0.91893044    -0.39000
C4155       C  0.45178037  0.54911682  0.90250528     0.19800
C4156       C  0.44315003  0.55896259  0.88695690     0.22500
C4157       C  0.42287353  0.56261550  0.88631695    -0.39500
C4158       C  0.41206378  0.55595199  0.90255518     0.21300
N4159       N  0.40747633  0.54214984  0.93211943    -0.32800
C4160       C  0.38995309  0.54801141  0.92477080    -0.10400
C4161       C  0.39217855  0.55661992  0.90632516    -0.29200
N4162       N  0.45667861  0.56390166  0.87343929    -0.45800
C4163       C  0.47393090  0.55675804  0.88028818    -0.05100
C4164       C  0.47145530  0.54740220  0.89832312    -0.22400
H4165       H  0.44792611  0.53540013  0.93116293     0.19400
H4166       H  0.41600469  0.56998774  0.87403568     0.18200
H4167       H  0.38079830  0.56260210  0.89699829     0.14500
H4168       H  0.48266181  0.54071013  0.90738248     0.14300
H4169       H  0.41001051  0.53498487  0.94543845     0.32500
H4170       H  0.45433775  0.57156348  0.86036779     0.35200
C4171       C  0.54691395  0.61995900  0.92499623     0.20800
C4172       C  0.55275875  0.63826511  0.93247464    -0.39000
C4173       C  0.54931603  0.64120182  0.95256226     0.19800
C4174       C  0.54047848  0.62702990  0.96412243     0.22500
C4175       C  0.53520577  0.60854432  0.95681117    -0.39500
C4176       C  0.53887280  0.60552826  0.93683306     0.21300
N4177       N  0.54712922  0.61411942  0.90617461    -0.32800
C4178       C  0.53945518  0.59577732  0.90614453    -0.10400
C4179       C  0.53437710  0.58977719  0.92500042    -0.29200
N4180       N  0.53798511  0.63362267  0.98245752    -0.45800
C4181       C  0.54562019  0.65196961  0.98278782    -0.05100
C4182       C  0.55300938  0.65723295  0.96444490    -0.22400
H4183       H  0.55910885  0.64952626  0.92325206     0.19400
H4184       H  0.52834274  0.59748827  0.96591954     0.18200
H4185       H  0.52722275  0.57625026  0.92925399     0.14500
H4186       H  0.56007836  0.67085799  0.96038708     0.14300
H4187       H  0.55174310  0.62225692  0.89403008     0.32500
H4188       H  0.53196748  0.62587371  0.99424098     0.35200
C4189       C  0.07026649  0.70239411  0.36521346     0.20800
C4190       C  0.05924020  0.69126145  0.37855610    -0.39000
C4191       C  0.06220860  0.69566875  0.39845221     0.19800
C4192       C  0.07528357  0.70993546  0.40464235     0.22500
C4193       C  0.08609654  0.72125887  0.39128623    -0.39500
C4194       C  0.08301908  0.71695353  0.37138803     0.21300
N4195       N  0.07068346  0.70058279  0.34555628    -0.32800
C4196       C  0.08367989  0.71422209  0.33921414    -0.10400
C4197       C  0.09160057  0.72474914  0.35487568    -0.29200
N4198       N  0.07631739  0.71042675  0.42435925    -0.45800
C4199       C  0.06369465  0.69645097  0.43071641    -0.05100
C4200       C  0.05451288  0.68707276  0.41500560    -0.22400
H4201       H  0.04936021  0.67976744  0.37382455     0.19400
H4202       H  0.09642777  0.73233991  0.39603701     0.18200
H4203       H  0.10252916  0.73625296  0.35426915     0.14500
H4204       H  0.04416781  0.67504120  0.41562847     0.14300
H4205       H  0.06275715  0.69062757  0.33701858     0.32500
H4206       H  0.08527333  0.71943621  0.43292848     0.35200
C4207       C  0.99967260  0.78985354  0.49691421     0.20800
C4208       C  0.01801793  0.78060111  0.49801772    -0.39000
C4209       C  0.01774403  0.76003070  0.49710526     0.19800
C4210       C  0.00057253  0.74940577  0.49493170     0.22500
C4211       C  0.98218681  0.75866068  0.49391740    -0.39500
C4212       C  0.98243547  0.77924776  0.49516683     0.21300
N4213       N  0.99603007  0.80927270  0.49690984    -0.32800
C4214       C  0.97629283  0.81103100  0.49539542    -0.10400
C4215       C  0.96732533  0.79263220  0.49433565    -0.29200
N4216       N  0.00442706  0.73005112  0.49362909    -0.45800
C4217       C  0.02419626  0.72840622  0.49516820    -0.05100
C4218       C  0.03294788  0.74677949  0.49740244    -0.22400
H4219       H  0.03154007  0.78881714  0.49932471     0.19400
H4220       H  0.96870385  0.75046711  0.49214245     0.18200
H4221       H  0.95186695  0.78951041  0.49247997     0.14500
H4222       H  0.04845079  0.75004257  0.49847072     0.14300
H4223       H  0.00632106  0.82060398  0.49759876     0.32500
H4224       H  0.99431480  0.71873750  0.49150458     0.35200
C4225       C  0.15320303  0.58475162  0.69094939     0.20800
C4226       C  0.13842622  0.57407977  0.68142014    -0.39000
C4227       C  0.11913205  0.57918656  0.68637507     0.19800
C4228       C  0.11481728  0.59386956  0.69973665     0.22500
C4229       C  0.12961522  0.60433460  0.70952521    -0.39500
C4230       C  0.14894625  0.59916404  0.70462066     0.21300
N4231       N  0.17266179  0.58336885  0.68805438    -0.32800
C4232       C  0.18087877  0.59688105  0.70009662    -0.10400
C4233       C  0.16657003  0.60695397  0.71073587    -0.29200
N4234       N  0.09533303  0.59688945  0.70072583    -0.45800
C4235       C  0.08726960  0.58399551  0.68790747    -0.05100
C4236       C  0.10162064  0.57257103  0.67887213    -0.22400
H4237       H  0.14170049  0.56298198  0.67054566     0.19400
H4238       H  0.12633203  0.61598839  0.71979827     0.18200
H4239       H  0.16876025  0.61875099  0.72113592     0.14500
H4240       H  0.09955754  0.56153605  0.66764048     0.14300
H4241       H  0.17989392  0.57395030  0.67836868     0.32500
H4242       H  0.08803276  0.60739916  0.70915682     0.35200
C4243       C  0.04856223  0.63089059  0.60177594     0.20800
C4244       C  0.05510949  0.64826759  0.59267684    -0.39000
C4245       C  0.05197018  0.64949205  0.57229665     0.19800
C4246       C  0.04269737  0.63464610  0.56200943     0.22500
C4247       C  0.03653650  0.61718742  0.57100386    -0.39500
C4248       C  0.03997029  0.61582697  0.59121750     0.21300
N4249       N  0.04909029  0.62637853  0.62100045    -0.32800
C4250       C  0.04106214  0.60821445  0.62257329    -0.10400
C4251       C  0.03535151  0.60108990  0.60428930    -0.29200
N4252       N  0.04097401  0.63937917  0.54299235    -0.45800
C4253       C  0.04950767  0.65720695  0.54086589    -0.05100
C4254       C  0.05666075  0.66403990  0.55884365    -0.22400
H4255       H  0.06201410  0.65998636  0.60086658     0.19400
H4256       H  0.02945820  0.60554492  0.56284997     0.18200
H4257       H  0.02804357  0.58735288  0.60112132     0.14500
H4258       H  0.06422343  0.67770962  0.56166770     0.14300
H4259       H  0.05437551  0.63517318  0.63238338     0.32500
H4260       H  0.03477276  0.63073270  0.53195861     0.35200
C4261       C  0.18106703  0.41616248  0.45715309     0.20800
C4262       C  0.17546828  0.39724977  0.46305562    -0.39000
C4263       C  0.18429735  0.38177526  0.45279184     0.19800
C4264       C  0.19777174  0.38496202  0.43792321     0.22500
C4265       C  0.20321954  0.40385401  0.43190757    -0.39500
C4266       C  0.19430302  0.41930621  0.44206689     0.21300
N4267       N  0.17438797  0.43329283  0.46417510    -0.32800
C4268       C  0.18333118  0.44739313  0.45337589    -0.10400
C4269       C  0.19584297  0.43926869  0.43941626    -0.29200
N4270       N  0.20359610  0.36791085  0.43005707    -0.45800
C4271       C  0.19355951  0.35377327  0.43976058    -0.05100
C4272       C  0.18141860  0.36179695  0.45412965    -0.22400
H4273       H  0.16478782  0.39478289  0.47454319     0.19400
H4274       H  0.21340395  0.40633049  0.41997927     0.18200
H4275       H  0.20457036  0.44691733  0.42857558     0.14500
H4276       H  0.17149250  0.35410495  0.46384786     0.14300
H4277       H  0.16399628  0.43526321  0.47526459     0.32500
H4278       H  0.21327789  0.36604359  0.41832450     0.35200
C4279       C  0.24215917  0.51319176  0.51011487     0.20800
C4280       C  0.25173187  0.51255461  0.52837788    -0.39000
C4281       C  0.27234564  0.51206340  0.52775218     0.19800
C4282       C  0.28270295  0.51193732  0.51028781     0.22500
C4283       C  0.27311695  0.51275675  0.49201395    -0.39500
C4284       C  0.25248703  0.51350044  0.49263648     0.21300
N4285       N  0.22268051  0.51284718  0.50672569    -0.32800
C4286       C  0.22053156  0.51310484  0.48692601    -0.10400
C4287       C  0.23881882  0.51361705  0.47766448    -0.29200
N4288       N  0.30214658  0.51029731  0.51368838    -0.45800
C4289       C  0.30418133  0.50954060  0.53348934    -0.05100
C4290       C  0.28590392  0.51072426  0.54270818    -0.22400
H4291       H  0.24371338  0.51213299  0.54207750     0.19400
H4292       H  0.28111324  0.51249172  0.47830031     0.18200
H4293       H  0.24172463  0.51325481  0.46205641     0.14500
H4294       H  0.28289758  0.50997549  0.55828668     0.14300
H4295       H  0.21154775  0.51201119  0.51722062     0.32500
H4296       H  0.31328792  0.50941152  0.50321018     0.35200
C4297       C  0.12366017  0.57862573  0.45736415     0.20800
C4298       C  0.10506186  0.58687339  0.45398069    -0.39000
C4299       C  0.10153401  0.60500204  0.46307899     0.19800
C4300       C  0.11556361  0.61423018  0.47449934     0.22500
C4301       C  0.13405393  0.60587971  0.47806333    -0.39500
C4302       C  0.13752711  0.58768771  0.46911711     0.21300
N4303       N  0.13011764  0.56097524  0.45147143    -0.32800
C4304       C  0.14811076  0.55869486  0.45963592    -0.10400
C4305       C  0.15324133  0.57499846  0.47083037    -0.29200
N4306       N  0.10862572  0.63122054  0.48162690    -0.45800
C4307       C  0.08997244  0.63277771  0.47490973    -0.05100
C4308       C  0.08496680  0.61668598  0.46328607    -0.22400
H4309       H  0.09402714  0.57952443  0.44524039     0.19400
H4310       H  0.14479288  0.61285376  0.48745271     0.18200
H4311       H  0.16615500  0.57681558  0.47988905     0.14500
H4312       H  0.07115696  0.61397143  0.45593354     0.14300
H4313       H  0.12227695  0.55054968  0.44341953     0.32500
H4314       H  0.11606889  0.64108314  0.49069425     0.35200
C4315       C  0.90265464  0.45688482  0.32945555     0.20800
C4316       C  0.88955643  0.44814893  0.31619732    -0.39000
C4317       C  0.86963378  0.44921974  0.32126757     0.19800
C4318       C  0.86320183  0.45812568  0.33834823     0.22500
C4319       C  0.87630033  0.46701115  0.35156044    -0.39500
C4320       C  0.89622758  0.46617540  0.34634189     0.21300
N4321       N  0.92232439  0.45771463  0.32803454    -0.32800
C4322       C  0.92843347  0.46793901  0.34393714    -0.10400
C4323       C  0.91260424  0.47346955  0.35570059    -0.29200
N4324       N  0.84361935  0.45629769  0.34021502    -0.45800
C4325       C  0.83757285  0.44616498  0.32418317    -0.05100
C4326       C  0.85337774  0.44163268  0.31198655    -0.22400
H4327       H  0.89452416  0.44089679  0.30297513     0.19400
H4328       H  0.87136096  0.47397711  0.36494736     0.18200
H4329       H  0.91306970  0.48156739  0.36935396     0.14500
H4330       H  0.85310409  0.43319686  0.29853579     0.14300
H4331       H  0.93102970  0.45196509  0.31681224     0.32500
H4332       H  0.83500243  0.46109561  0.35194173     0.35200
C4333       C  0.05930533  0.49219933  0.40223621     0.20800
C4334       C  0.06794670  0.49495423  0.42067529    -0.39000
C4335       C  0.08837007  0.49317864  0.42129216     0.19800
C4336       C  0.09944482  0.48924019  0.40473515     0.22500
C4337       C  0.09072052  0.48601722  0.38627564    -0.39500
C4338       C  0.07013907  0.48749785  0.38571378     0.21300
N4339       N  0.04016149  0.49323417  0.39795700    -0.32800
C4340       C  0.03854630  0.48874979  0.37867899    -0.10400
C4341       C  0.05693340  0.48494305  0.37045515    -0.29200
N4342       N  0.11869564  0.48959718  0.40911226    -0.45800
C4343       C  0.11973906  0.49357673  0.42860831    -0.05100
C4344       C  0.10112944  0.49570453  0.43672311    -0.22400
H4345       H  0.05937993  0.49842959  0.43358560     0.19400
H4346       H  0.09930732  0.48275302  0.37332659     0.18200
H4347       H  0.06015915  0.48078789  0.35547550     0.14500
H4348       H  0.09747633  0.49949765  0.45170520     0.14300
H4349       H  0.02873969  0.49613907  0.40775674     0.32500
H4350       H  0.13038870  0.48763352  0.39940715     0.35200
C4351       C  0.95448927  0.35431928  0.62047024     0.20800
C4352       C  0.95973667  0.35916921  0.63981869    -0.39000
C4353       C  0.94982985  0.34880984  0.65462544     0.19800
C4354       C  0.93594916  0.33459600  0.65039769     0.22500
C4355       C  0.93056918  0.32991089  0.63111338    -0.39500
C4356       C  0.94030889  0.34037268  0.61636447     0.21300
N4357       N  0.96149343  0.36218667  0.60378327    -0.32800
C4358       C  0.95155499  0.35326033  0.58902867    -0.10400
C4359       C  0.93817037  0.33963952  0.59630381    -0.29200
N4360       N  0.92826010  0.32722803  0.66693813    -0.45800
C4361       C  0.93702780  0.33699800  0.68185968    -0.05100
C4362       C  0.95065570  0.35055043  0.67480385    -0.22400
H4363       H  0.97051544  0.37035576  0.64309684     0.19400
H4364       H  0.91941565  0.31909269  0.62784362     0.18200
H4365       H  0.92819096  0.33047997  0.58801832     0.14500
H4366       H  0.95953618  0.36064182  0.68325120     0.14300
H4367       H  0.97212598  0.37314803  0.60251235     0.32500
H4368       H  0.91716904  0.31670295  0.66799070     0.35200
C4369       C  0.98795406  0.28319560  0.52028199     0.20800
C4370       C  0.98488176  0.26279563  0.52090581    -0.39000
C4371       C  0.00187606  0.25111171  0.52096432     0.19800
C4372       C  0.02050143  0.25914556  0.52011497     0.22500
C4373       C  0.02357138  0.27954049  0.51957101    -0.39500
C4374       C  0.00659367  0.29122951  0.51985672     0.21300
N4375       N  0.97429982  0.29740577  0.52155164    -0.32800
C4376       C  0.98429090  0.31461244  0.52232317    -0.10400
C4377       C  0.00448037  0.31135444  0.52118506    -0.29200
N4378       N  0.03423442  0.24501840  0.52143810    -0.45800
C4379       C  0.02434221  0.22786349  0.52348343    -0.05100
C4380       C  0.00410407  0.23106707  0.52315347    -0.22400
H4381       H  0.97034456  0.25650852  0.52199615     0.19400
H4382       H  0.03813626  0.28585673  0.51965849     0.18200
H4383       H  0.01605680  0.32219251  0.52193462     0.14500
H4384       H  0.99260256  0.22028137  0.52500917     0.14300
H4385       H  0.95914739  0.29547049  0.52275615     0.32500
H4386       H  0.04942070  0.24701972  0.52185426     0.35200
C4387       C  0.97610687  0.39974261  0.45210557     0.20800
C4388       C  0.98968288  0.40781632  0.43893174    -0.39000
C4389       C  0.98244853  0.42266969  0.42668606     0.19800
C4390       C  0.96325266  0.42924729  0.42770762     0.22500
C4391       C  0.94955310  0.42085247  0.44057242    -0.39500
C4392       C  0.95670129  0.40574745  0.45261051     0.21300
N4393       N  0.97986745  0.38711235  0.46675629    -0.32800
C4394       C  0.96271569  0.38492816  0.47654465    -0.10400
C4395       C  0.94783393  0.39602559  0.46795227    -0.29200
N4396       N  0.96018920  0.44388773  0.41483829    -0.45800
C4397       C  0.97745008  0.44626799  0.40530677    -0.05100
C4398       C  0.99165903  0.43330378  0.41221903    -0.22400
H4399       H  0.00487260  0.40319955  0.43856454     0.19400
H4400       H  0.93456901  0.42602714  0.44148855     0.18200
H4401       H  0.93315907  0.39839002  0.47353626     0.14500
H4402       H  0.00659732  0.43168101  0.40708724     0.14300
H4403       H  0.99355058  0.38144609  0.47071719     0.32500
H4404       H  0.94699926  0.45119685  0.41208666     0.35200
C4405       C  0.81969291  0.62990581  0.58257128     0.20800
C4406       C  0.80693935  0.64231415  0.59284637    -0.39000
C4407       C  0.80950502  0.66243811  0.58946628     0.19800
C4408       C  0.82376533  0.66970531  0.57693998     0.22500
C4409       C  0.83630819  0.65728872  0.56641893    -0.39500
C4410       C  0.83364764  0.63716100  0.56969695     0.21300
N4411       N  0.82079866  0.61024565  0.58379779    -0.32800
C4412       C  0.83545200  0.60503000  0.57146074    -0.10400
C4413       C  0.84372186  0.62136539  0.56232980    -0.29200
N4414       N  0.82394185  0.68942415  0.57719060    -0.45800
C4415       C  0.80956742  0.69465946  0.58985253    -0.05100
C4416       C  0.80017197  0.67827286  0.59769406    -0.22400
H4417       H  0.79608398  0.63674374  0.60300796     0.19400
H4418       H  0.84754927  0.66288194  0.55669776     0.18200
H4419       H  0.85579035  0.62164421  0.55201220     0.14500
H4420       H  0.78855473  0.67800450  0.60851633     0.14300
H4421       H  0.81220034  0.60099110  0.59247425     0.32500
H4422       H  0.83341929  0.69870423  0.56951483     0.35200
C4423       C  0.74375205  0.53554808  0.50691700     0.20800
C4424       C  0.75373977  0.53467802  0.52491057    -0.39000
C4425       C  0.77420606  0.53687012  0.52399262     0.19800
C4426       C  0.78412988  0.53993607  0.50654905     0.22500
C4427       C  0.77412765  0.54057426  0.48845111    -0.39500
C4428       C  0.75358994  0.53813348  0.48933865     0.21300
N4429       N  0.72421111  0.53470831  0.50401010    -0.32800
C4430       C  0.72148542  0.53651952  0.48438032    -0.10400
C4431       C  0.73949464  0.53857362  0.47473703    -0.29200
N4432       N  0.80352193  0.54253716  0.50990508    -0.45800
C4433       C  0.80586868  0.54093010  0.52964788    -0.05100
C4434       C  0.78790028  0.53732568  0.53880269    -0.22400
H4435       H  0.74609505  0.53274567  0.53869444     0.19400
H4436       H  0.78171516  0.54306808  0.47472825     0.18200
H4437       H  0.74188104  0.54085383  0.45920234     0.14500
H4438       H  0.78513857  0.53581102  0.55437169     0.14300
H4439       H  0.71337379  0.53327010  0.51474652     0.32500
H4440       H  0.81437796  0.54548227  0.49950415     0.35200
C4441       C  0.90744982  0.43789128  0.55012462     0.20800
C4442       C  0.89007362  0.44627683  0.55741579    -0.39000
C4443       C  0.88783674  0.46649390  0.55417220     0.19800
C4444       C  0.90173222  0.47734480  0.54410194     0.22500
C4445       C  0.91922905  0.46903576  0.53708247    -0.39500
C4446       C  0.92162996  0.44891535  0.54064861     0.21300
N4447       N  0.91278537  0.41893736  0.55086426    -0.32800
C4448       C  0.93060563  0.41790569  0.54210203    -0.10400
C4449       C  0.93672099  0.43633872  0.53564139    -0.29200
N4450       N  0.89619678  0.49617881  0.54281634    -0.45800
C4451       C  0.87883337  0.49751782  0.55241955    -0.05100
C4452       C  0.87309236  0.47928428  0.55977093    -0.22400
H4453       H  0.87912680  0.43768853  0.56506392     0.19400
H4454       H  0.93017500  0.47762715  0.52943265     0.18200
H4455       H  0.94998537  0.43988864  0.52767079     0.14500
H4456       H  0.86008121  0.47590815  0.56821566     0.14300
H4457       H  0.90472577  0.40733768  0.55681447     0.32500
H4458       H  0.90408145  0.50760112  0.53630851     0.35200
C4459       C  0.92434394  0.57595733  0.61225645     0.20800
C4460       C  0.93823339  0.58964446  0.61899800    -0.39000
C4461       C  0.95034999  0.58330667  0.63446322     0.19800
C4462       C  0.94896097  0.56461808  0.64231372     0.22500
C4463       C  0.93482525  0.55110120  0.63587716    -0.39500
C4464       C  0.92250642  0.55756801  0.62069636     0.21300
N4465       N  0.91146237  0.57814877  0.59740170    -0.32800
C4466       C  0.90114915  0.56114845  0.59667816    -0.10400
C4467       C  0.90752072  0.54804252  0.61105854    -0.29200
N4468       N  0.96365710  0.56129596  0.65504053    -0.45800
C4469       C  0.97437088  0.57804321  0.65554457    -0.05100
C4470       C  0.96637806  0.59221560  0.64309917    -0.22400
H4471       H  0.93984260  0.60397831  0.61234810     0.19400
H4472       H  0.93382021  0.53643625  0.64190185     0.18200
H4473       H  0.90196195  0.53345335  0.61397761     0.14500
H4474       H  0.97264296  0.60631227  0.63932509     0.14300
H4475       H  0.90946445  0.59056888  0.58863888     0.32500
H4476       H  0.96695244  0.54802875  0.66198946     0.35200
C4477       C  0.92688261  0.71934230  0.86935989     0.20800
C4478       C  0.92054643  0.72317420  0.88857735    -0.39000
C4479       C  0.93055728  0.71304504  0.90342299     0.19800
C4480       C  0.94585822  0.70031996  0.89934523     0.22500
C4481       C  0.95208937  0.69637661  0.88015670    -0.39500
C4482       C  0.94191722  0.70628205  0.86532882     0.21300
N4483       N  0.91896320  0.72612655  0.85266872    -0.32800
C4484       C  0.92875376  0.71700812  0.83796870    -0.10400
C4485       C  0.94328838  0.70462194  0.84524202    -0.29200
N4486       N  0.95273302  0.69222579  0.91587275    -0.45800
C4487       C  0.94165516  0.69964899  0.93060394    -0.05100
C4488       C  0.92759700  0.71269301  0.92346648    -0.22400
H4489       H  0.90841443  0.73293623  0.89168830     0.19400
H4490       H  0.96366725  0.68597570  0.87699397     0.18200
H4491       H  0.95299402  0.69514729  0.83698549     0.14500
H4492       H  0.91662986  0.72063486  0.93175417     0.14300
H4493       H  0.90699497  0.73561707  0.85136308     0.32500
H4494       H  0.96401815  0.68191042  0.91701791     0.35200
C4495       C  0.00556602  0.75032412  0.99708423     0.20800
C4496       C  0.02417320  0.75922069  0.99700955    -0.39000
C4497       C  0.02428402  0.77986194  0.99734493     0.19800
C4498       C  0.00718678  0.79083139  0.99748385     0.22500
C4499       C  0.98861355  0.78194829  0.99775710    -0.39500
C4500       C  0.98850970  0.76133774  0.99765747     0.21300
N4501       N  0.00140338  0.73100682  0.99589873    -0.32800
C4502       C  0.98153456  0.72976032  0.99586643    -0.10400
C4503       C  0.97304543  0.74837367  0.99706047    -0.29200
N4504       N  0.01121912  0.81016161  0.99663975    -0.45800
C4505       C  0.03105313  0.81153682  0.99615097    -0.05100
C4506       C  0.03969535  0.79294892  0.99666806    -0.22400
H4507       H  0.03757149  0.75072033  0.99638161     0.19400
H4508       H  0.97520478  0.79045771  0.99768699     0.18200
H4509       H  0.95758238  0.75197524  0.99673259     0.14500
H4510       H  0.05516927  0.78947295  0.99588816     0.14300
H4511       H  0.01141260  0.71945893  0.99474307     0.32500
H4512       H  0.00111724  0.82167596  0.99607565     0.35200
C4513       C  0.89453432  0.58099309  0.18641020     0.20800
C4514       C  0.87570240  0.57478952  0.18088505    -0.39000
C4515       C  0.86020757  0.58195452  0.19234708     0.19800
C4516       C  0.86325294  0.59421132  0.20825142     0.22500
C4517       C  0.88212105  0.60047759  0.21375417    -0.39500
C4518       C  0.89762649  0.59349599  0.20211328     0.21300
N4519       N  0.91154924  0.57668231  0.17748144    -0.32800
C4520       C  0.92561304  0.58664650  0.18738630    -0.10400
C4521       C  0.91751644  0.59736368  0.20285442    -0.29200
N4522       N  0.84602559  0.59997351  0.21593600    -0.45800
C4523       C  0.83193241  0.59158367  0.20465101    -0.05100
C4524       C  0.84021891  0.58006927  0.18991405    -0.22400
H4525       H  0.87325593  0.56548187  0.16825456     0.19400
H4526       H  0.88449460  0.61048076  0.22585528     0.18200
H4527       H  0.92513932  0.60668086  0.21320756     0.14500
H4528       H  0.83265425  0.57224560  0.17835051     0.14300
H4529       H  0.91345366  0.56774172  0.16518016     0.32500
H4530       H  0.84398300  0.60983795  0.22748511     0.35200
C4531       C  0.99199583  0.51749222  0.27730095     0.20800
C4532       C  0.99193251  0.51544201  0.25682549    -0.39000
C4533       C  0.99287932  0.53293723  0.24606905     0.19800
C4534       C  0.99397727  0.55114250  0.25499151     0.22500
C4535       C  0.99389471  0.55320072  0.27556317    -0.39500
C4536       C  0.99275428  0.53563712  0.28638169     0.21300
N4537       N  0.99072375  0.50307056  0.29063576    -0.32800
C4538       C  0.99044647  0.51194560  0.30843047    -0.10400
C4539       C  0.99165802  0.53232245  0.30642515    -0.29200
N4540       N  0.99391258  0.56551542  0.24140459    -0.45800
C4541       C  0.99251365  0.55635134  0.22376707    -0.05100
C4542       C  0.99191886  0.53603253  0.22612025    -0.22400
H4543       H  0.99084457  0.50125186  0.24977875     0.19400
H4544       H  0.99429709  0.56742478  0.28260523     0.18200
H4545       H  0.99164981  0.54318669  0.31800025     0.14500
H4546       H  0.99024793  0.52503471  0.21478762     0.14300
H4547       H  0.98971944  0.48804397  0.28777299     0.32500
H4548       H  0.99395100  0.58061991  0.24399920     0.35200
C4549       C  0.96101812  0.63498298  0.06061642     0.20800
C4550       C  0.96552325  0.61704756  0.06966830    -0.39000
C4551       C  0.96626848  0.61734416  0.09021332     0.19800
C4552       C  0.96293686  0.63425926  0.10094526     0.22500
C4553       C  0.95801716  0.65215319  0.09187284    -0.39500
C4554       C  0.95708356  0.65182482  0.07126625     0.21300
N4555       N  0.96032948  0.63867006  0.04129432    -0.32800
C4556       C  0.95565247  0.65791149  0.03951171    -0.10400
C4557       C  0.95329904  0.66664233  0.05788224    -0.29200
N4558       N  0.96552746  0.63083662  0.12022826    -0.45800
C4559       C  0.97035814  0.61157371  0.12174530    -0.05100
C4560       C  0.97083768  0.60265469  0.10334125    -0.22400
H4561       H  0.96858917  0.60390327  0.06130074     0.19400
H4562       H  0.95543108  0.66541030  0.10021811     0.18200
H4563       H  0.94992061  0.68184114  0.06099605     0.14500
H4564       H  0.97450654  0.58756887  0.09999514     0.14300
H4565       H  0.96289707  0.62869093  0.02994640     0.32500
H4566       H  0.96418940  0.64097827  0.13163752     0.35200
C4567       C  0.18410511  0.63500505  0.06512300     0.20800
C4568       C  0.18114119  0.65468230  0.05971988    -0.39000
C4569       C  0.19059773  0.66871000  0.07144059     0.19800
C4570       C  0.20239858  0.66347677  0.08712575     0.22500
C4571       C  0.20529048  0.64379117  0.09259107    -0.39500
C4572       C  0.19557604  0.62976576  0.08105075     0.21300
N4573       N  0.17556580  0.61911330  0.05722067    -0.32800
C4574       C  0.18132014  0.60363588  0.06834358    -0.10400
C4575       C  0.19397059  0.60966209  0.08328406    -0.29200
N4576       N  0.20924332  0.67953405  0.09628409    -0.45800
C4577       C  0.20152553  0.69511711  0.08658282    -0.05100
C4578       C  0.18980814  0.68896455  0.07096308    -0.22400
H4579       H  0.17166315  0.65878438  0.04764934     0.19400
H4580       H  0.21398388  0.63973768  0.10525385     0.18200
H4581       H  0.20038990  0.60070385  0.09472611     0.14500
H4582       H  0.18161176  0.69805813  0.06083872     0.14300
H4583       H  0.16565727  0.61893553  0.04552352     0.32500
H4584       H  0.21814571  0.67987924  0.10875988     0.35200
C4585       C  0.25663715  0.52966016  0.98694597     0.20800
C4586       C  0.23601548  0.53057438  0.98532997    -0.39000
C4587       C  0.22561735  0.53206316  0.00315288     0.19800
C4588       C  0.23516413  0.53232100  0.02107611     0.22500
C4589       C  0.25564667  0.53156255  0.02266902    -0.39500
C4590       C  0.26596627  0.53030148  0.00496923     0.21300
N4591       N  0.26995651  0.52944553  0.97231725    -0.32800
C4592       C  0.28781079  0.53020429  0.98117287    -0.10400
C4593       C  0.28585826  0.53067067  0.00152261    -0.29200
N4594       N  0.22233407  0.53453381  0.03580349    -0.45800
C4595       C  0.20436395  0.53603508  0.02743892    -0.05100
C4596       C  0.20574550  0.53451893  0.00699144    -0.22400
H4597       H  0.22866654  0.53067938  0.97125097     0.19400
H4598       H  0.26304491  0.53243030  0.03669921     0.18200
H4599       H  0.29743302  0.53192036  0.01232813     0.14500
H4600       H  0.19395651  0.53558939  0.99640617     0.14300
H4601       H  0.26708075  0.52965654  0.95726306     0.32500
H4602       H  0.22571952  0.53573945  0.05070858     0.35200
C4603       C  0.06069077  0.58552168  0.13161511     0.20800
C4604       C  0.07059028  0.59055783  0.11423830    -0.39000
C4605       C  0.08728434  0.57933926  0.10980949     0.19800
C4606       C  0.09383546  0.56445314  0.12197504     0.22500
C4607       C  0.08373956  0.55916262  0.13919414    -0.39500
C4608       C  0.06681001  0.57016761  0.14343436     0.21300
N4609       N  0.04357421  0.59288408  0.13808181    -0.32800
C4610       C  0.03843917  0.58192080  0.15385664    -0.10400
C4611       C  0.05256431  0.56755797  0.15765815    -0.29200
N4612       N  0.10989491  0.55586863  0.11436171    -0.45800
C4613       C  0.11340985  0.56510356  0.09705772    -0.05100
C4614       C  0.09957078  0.57981031  0.09368359    -0.22400
H4615       H  0.06533164  0.60201157  0.10456652     0.19400
H4616       H  0.08838085  0.54698442  0.14828136     0.18200
H4617       H  0.05185708  0.55598812  0.16852069     0.14500
H4618       H  0.09861798  0.58949883  0.08113185     0.14300
H4619       H  0.03506660  0.60364068  0.13122002     0.32500
H4620       H  0.11773192  0.54412294  0.12033910     0.35200
C4621       C  0.82083922  0.41680866  0.94061927     0.20800
C4622       C  0.81110500  0.40252789  0.92952881    -0.39000
C4623       C  0.81580732  0.38305998  0.93406188     0.19800
C4624       C  0.82930632  0.37813084  0.94843861     0.22500
C4625       C  0.83889488  0.39243355  0.95972434    -0.39500
C4626       C  0.83407551  0.41195568  0.95526826     0.21300
N4627       N  0.81955866  0.43634069  0.93850064    -0.32800
C4628       C  0.83196944  0.44400547  0.95197206    -0.10400
C4629       C  0.84122969  0.42928729  0.96279988    -0.29200
N4630       N  0.83200689  0.35860380  0.94904322    -0.45800
C4631       C  0.82003396  0.35116812  0.93501634    -0.05100
C4632       C  0.80960730  0.36592575  0.92547828    -0.22400
H4633       H  0.80091796  0.40630766  0.91794003     0.19400
H4634       H  0.84959800  0.38866682  0.97084255     0.18200
H4635       H  0.85217237  0.43103881  0.97417782     0.14500
H4636       H  0.79940646  0.36436115  0.91340342     0.14300
H4637       H  0.81101526  0.44397728  0.92831170     0.32500
H4638       H  0.84160396  0.35086282  0.95815704     0.35200
C4639       C  0.76987832  0.51126620  0.00681333     0.20800
C4640       C  0.76038221  0.51280306  0.02502657    -0.39000
C4641       C  0.73981593  0.51180774  0.02458575     0.19800
C4642       C  0.72940980  0.50923467  0.00734064     0.22500
C4643       C  0.73892275  0.50791957  0.98902846    -0.39500
C4644       C  0.75955575  0.50915537  0.98944839     0.21300
N4645       N  0.78933804  0.51094928  0.00350369    -0.32800
C4646       C  0.79155454  0.50887841  0.98384637    -0.10400
C4647       C  0.77328273  0.50778007  0.97454761    -0.29200
N4648       N  0.71008496  0.50717989  0.01113822    -0.45800
C4649       C  0.70821303  0.50852039  0.03094726    -0.05100
C4650       C  0.72644548  0.51161283  0.03975483    -0.22400
H4651       H  0.76845471  0.51421879  0.03863116     0.19400
H4652       H  0.73089431  0.50567478  0.97551055     0.18200
H4653       H  0.77045335  0.50560172  0.95907218     0.14500
H4654       H  0.72962691  0.51246873  0.05529304     0.14300
H4655       H  0.80045738  0.51187444  0.01401293     0.32500
H4656       H  0.69897760  0.50430909  0.00097756     0.35200
C4657       C  0.88077077  0.58145137  0.95478169     0.20800
C4658       C  0.89610872  0.59317155  0.94747635    -0.39000
C4659       C  0.90165473  0.60911094  0.95932213     0.19800
C4660       C  0.89231527  0.61325248  0.97687596     0.22500
C4661       C  0.87730663  0.60131489  0.98436865    -0.39500
C4662       C  0.87203861  0.58518573  0.97273210     0.21300
N4663       N  0.87371391  0.56473825  0.94700211    -0.32800
C4664       C  0.86073547  0.55757489  0.96027593    -0.10400
C4665       C  0.85936652  0.56987976  0.97655525    -0.29200
N4666       N  0.90029153  0.62909897  0.98544331    -0.45800
C4667       C  0.91513915  0.63485102  0.97355357    -0.05100
C4668       C  0.91650388  0.62275122  0.95708831    -0.22400
H4669       H  0.90350272  0.58983335  0.93382742     0.19400
H4670       H  0.87057368  0.60410002  0.99847713     0.18200
H4671       H  0.85103462  0.56740009  0.98984364     0.14500
H4672       H  0.92688543  0.62383665  0.94512536     0.14300
H4673       H  0.87850894  0.55784594  0.93418005     0.32500
H4674       H  0.89623445  0.63533772  0.99884175     0.35200
C4675       C  0.06805334  0.33479939  0.11857657     0.20800
C4676       C  0.07782370  0.32273755  0.13206016    -0.39000
C4677       C  0.07478105  0.32726059  0.15187125     0.19800
C4678       C  0.06305034  0.34273258  0.15785971     0.22500
C4679       C  0.05305809  0.35466506  0.14434913    -0.39500
C4680       C  0.05594833  0.35001405  0.12448929     0.21300
N4681       N  0.06953244  0.33427272  0.09894265    -0.32800
C4682       C  0.05816051  0.34914080  0.09227673    -0.10400
C4683       C  0.04929471  0.35920652  0.10773678    -0.29200
N4684       N  0.06373362  0.34479654  0.17748206    -0.45800
C4685       C  0.07593578  0.33047330  0.18393576    -0.05100
C4686       C  0.08295926  0.31915549  0.16842066    -0.22400
H4687       H  0.08750551  0.31102121  0.12745506     0.19400
H4688       H  0.04410689  0.36695444  0.14893288     0.18200
H4689       H  0.04002327  0.37207305  0.10685243     0.14500
H4690       H  0.09336390  0.30717016  0.16909801     0.14300
H4691       H  0.07809365  0.32467953  0.09060307     0.32500
H4692       H  0.05680026  0.35557555  0.18588132     0.35200
C4693       C  0.00904020  0.29021290  0.02191156     0.20800
C4694       C  0.99126839  0.27981260  0.02123507    -0.39000
C4695       C  0.99278846  0.25925973  0.02155148     0.19800
C4696       C  0.01063627  0.24966526  0.02275022     0.22500
C4697       C  0.02850169  0.26010175  0.02325382    -0.39500
C4698       C  0.02698917  0.28074764  0.02265645     0.21300
N4699       N  0.01137436  0.30981622  0.02273682    -0.32800
C4700       C  0.03097316  0.31303784  0.02385072    -0.10400
C4701       C  0.04122432  0.29522584  0.02370068    -0.29200
N4702       N  0.00792649  0.23004607  0.02388223    -0.45800
C4703       C  0.98819701  0.22718028  0.02320295    -0.05100
C4704       C  0.97835766  0.24509169  0.02165763    -0.22400
H4705       H  0.97722064  0.28720613  0.02081728     0.19400
H4706       H  0.04251766  0.25271905  0.02435256     0.18200
H4707       H  0.05689806  0.29313523  0.02513805     0.14500
H4708       H  0.96266078  0.24746521  0.02133197     0.14300
H4709       H  0.00026033  0.32036684  0.02304359     0.32500
H4710       H  0.01877543  0.21931598  0.02531686     0.35200
C4711       C  0.12118478  0.46823112  0.06033666     0.20800
C4712       C  0.12020433  0.44829339  0.06548762    -0.39000
C4713       C  0.10335370  0.43823286  0.05918006     0.19800
C4714       C  0.08840328  0.44742805  0.04892853     0.22500
C4715       C  0.08947845  0.46729715  0.04361854    -0.39500
C4716       C  0.10649646  0.47723652  0.04956552     0.21300
N4717       N  0.13575946  0.48097138  0.06429405    -0.32800
C4718       C  0.13039229  0.49811599  0.05572433    -0.10400
C4719       C  0.11227070  0.49632230  0.04636462    -0.29200
N4720       N  0.07440385  0.43447791  0.04385524    -0.45800
C4721       C  0.08072972  0.41681941  0.05045713    -0.05100
C4722       C  0.09866434  0.41857783  0.06018646    -0.22400
H4723       H  0.13191092  0.44103260  0.07339713     0.19400
H4724       H  0.07810114  0.47438913  0.03509633     0.18200
H4725       H  0.10422834  0.50760470  0.03858783     0.14500
H4726       H  0.10748128  0.40690215  0.06637668     0.14300
H4727       H  0.14853698  0.47819162  0.07229004     0.32500
H4728       H  0.06196440  0.43724217  0.03533281     0.35200
C4729       C  0.11148818  0.45453369  0.82821040     0.20800
C4730       C  0.12392540  0.44226952  0.81737690    -0.39000
C4731       C  0.14406106  0.44480441  0.82068714     0.19800
C4732       C  0.15137005  0.45833876  0.83395286     0.22500
C4733       C  0.13890177  0.47077589  0.84468532    -0.39500
C4734       C  0.11870447  0.46839615  0.84119376     0.21300
N4735       N  0.09176713  0.45444267  0.82824721    -0.32800
C4736       C  0.08634396  0.46843328  0.84126402    -0.10400
C4737       C  0.10272071  0.47758020  0.84951876    -0.29200
N4738       N  0.17111676  0.45741657  0.83470967    -0.45800
C4739       C  0.17630487  0.44334646  0.82162162    -0.05100
C4740       C  0.15983415  0.43520794  0.81262464    -0.22400
H4741       H  0.11832965  0.43140897  0.80723374     0.19400
H4742       H  0.14448311  0.48137786  0.85510432     0.18200
H4743       H  0.10288544  0.48887163  0.86068231     0.14500
H4744       H  0.15946214  0.42360663  0.80178639     0.14300
H4745       H  0.08257259  0.44518804  0.82020675     0.32500
H4746       H  0.18044701  0.46584265  0.84346900     0.35200
C4747       C  0.02048578  0.53266471  0.78817564     0.20800
C4748       C  0.02049374  0.55084460  0.77838479    -0.39000
C4749       C  0.02005226  0.54991924  0.75775343     0.19800
C4750       C  0.01989968  0.53224921  0.74772372     0.22500
C4751       C  0.01972478  0.51417411  0.75746580    -0.39500
C4752       C  0.01988672  0.51510892  0.77797713     0.21300
N4753       N  0.02172533  0.52935407  0.80765789    -0.32800
C4754       C  0.02175941  0.50954078  0.80968638    -0.10400
C4755       C  0.02049153  0.50025244  0.79152357    -0.29200
N4756       N  0.02059099  0.53518918  0.72825813    -0.45800
C4757       C  0.02100609  0.55488867  0.72575760    -0.05100
C4758       C  0.02059324  0.56461373  0.74380495    -0.22400
H4759       H  0.02111856  0.56464670  0.78620852     0.19400
H4760       H  0.01978134  0.50035814  0.74963516     0.18200
H4761       H  0.02077368  0.48464454  0.78858456     0.14500
H4762       H  0.02138747  0.58026537  0.74636755     0.14300
H4763       H  0.02287713  0.53983132  0.81877863     0.32500
H4764       H  0.02114537  0.52444028  0.71734739     0.35200
C4765       C  0.91576449  0.48780779  0.90581596     0.20800
C4766       C  0.92490312  0.48312755  0.88789775    -0.39000
C4767       C  0.94539581  0.48543664  0.88743992     0.19800
C4768       C  0.95578007  0.49229717  0.90349495     0.22500
C4769       C  0.94671108  0.49663473  0.92143072    -0.39500
C4770       C  0.92636557  0.49396304  0.92200787     0.21300
N4771       N  0.89649220  0.48728112  0.91000742    -0.32800
C4772       C  0.89492615  0.49287564  0.92905905    -0.10400
C4773       C  0.91325424  0.49701787  0.93707436    -0.29200
N4774       N  0.97498845  0.49334844  0.89944568    -0.45800
C4775       C  0.97706513  0.48670397  0.88084392    -0.05100
C4776       C  0.95892646  0.48157023  0.87279277    -0.22400
H4777       H  0.91669112  0.47800629  0.87530713     0.19400
H4778       H  0.95492892  0.50168299  0.93404790     0.18200
H4779       H  0.91646461  0.50223179  0.95172734     0.14500
H4780       H  0.95607859  0.47564130  0.85834046     0.14300
H4781       H  0.88509379  0.48350715  0.90048197     0.32500
H4782       H  0.98615076  0.49764893  0.90903195     0.35200
C4783       C  0.05976943  0.40785765  0.95807241     0.20800
C4784       C  0.06737058  0.42363542  0.94708954    -0.39000
C4785       C  0.05558674  0.43023376  0.93146257     0.19800
C4786       C  0.03784639  0.42144149  0.92694346     0.22500
C4787       C  0.03012303  0.40597038  0.93807865    -0.39500
C4788       C  0.04166700  0.39967124  0.95387933     0.21300
N4789       N  0.06734931  0.39980674  0.97446595    -0.32800
C4790       C  0.05374646  0.38677792  0.98094348    -0.10400
C4791       C  0.03754872  0.38631753  0.96848275    -0.29200
N4792       N  0.02949811  0.43013584  0.91137694    -0.45800
C4793       C  0.04173207  0.44486049  0.90609315    -0.05100
C4794       C  0.05818481  0.44549837  0.91829810    -0.22400
H4795       H  0.08119752  0.43054142  0.95071976     0.19400
H4796       H  0.01591848  0.39960780  0.93494049     0.18200
H4797       H  0.02409636  0.37812166  0.97046588     0.14500
H4798       H  0.07050485  0.45546971  0.91739394     0.14300
H4799       H  0.08024321  0.40397338  0.98162610     0.32500
H4800       H  0.01615185  0.42641182  0.90482313     0.35200
loop_ 
_geom_bond_atom_site_label_1 
_geom_bond_atom_site_label_2 
_geom_bond_distance 
_geom_bond_site_symmetry_2 
_ccdc_geom_bond_type 
O1            V9   1.918       .  S
O1           C11   1.268       .  A
O2            V9   1.913       .  S
O2           C12   1.267       .  A
O3            V9   1.894       .  S
O3           C13   1.262       .  A
O4            V9   1.895       .  S
O4           C14   1.263   1_455  A
O5           V10   1.910   1_655  S
O5           C14   1.266       .  A
O6           V10   1.909       .  S
O6           C13   1.267       .  A
O7           V10   1.892       .  S
O7           C12   1.262       .  A
O8           V10   1.884       .  S
O8           C11   1.261       .  A
V9           V10   2.086       .  T
C11        C4754   1.472       .  S
C12        C4793   1.470       .  S
C13        C4736   1.471       .  S
C14        C4775   1.471       .  S
O15          V23   1.911       .  S
O15          C25   1.267       .  A
O16          V23   1.910       .  S
O16          C26   1.266       .  A
O17          V23   1.897       .  S
O17          C27   1.263       .  A
O18          V23   1.900       .  S
O18          C28   1.264       .  A
O19          V24   1.901       .  S
O19          C28   1.264       .  A
O20          V24   1.913       .  S
O20          C27   1.266       .  A
O21          V24   1.899       .  S
O21          C26   1.263       .  A
O22          V24   1.908       .  S
O22          C25   1.266       .  A
V23          V24   2.083       .  T
C25        C4700   1.483       .  S
C26        C4721   1.471       .  S
C27        C4790   1.472   1_554  S
C28        C4682   1.467       .  S
O29          V37   1.909       .  S
O29          C39   1.267       .  A
O30          V37   1.908       .  S
O30          C40   1.267       .  A
O31          V37   1.895       .  S
O31          C41   1.262       .  A
O32          V37   1.896       .  S
O32          C42   1.263       .  A
O33          V38   1.901       .  S
O33          C42   1.265       .  A
O34          V38   1.912       .  S
O34          C41   1.267       .  A
O35          V38   1.898       .  S
O35          C40   1.262       .  A
O36          V38   1.906       .  S
O36          C39   1.265       .  A
V37          V38   2.086       .  T
C39        C4646   1.480       .  S
C40        C4772   1.471       .  S
C41        C4664   1.470       .  S
C42        C4628   1.467       .  S
O43          V51   1.922       .  S
O43          C53   1.269       .  A
O44          V51   1.915       .  S
O44          C54   1.268       .  A
O45          V51   1.894       .  S
O45          C55   1.262       .  A
O46          V51   1.895       .  S
O46          C56   1.263       .  A
O47          V52   1.912       .  S
O47          C56   1.267       .  A
O48          V52   1.913       .  S
O48          C55   1.268       .  A
O49          V52   1.898       .  S
O49          C54   1.262       .  A
O50          V52   1.892       .  S
O50          C53   1.262       .  A
V51          V52   2.085       .  T
C53        C4595   1.479       .  S
C54        C4613   1.477       .  S
C55        C4574   1.474       .  S
C56        C4718   1.473       .  S
O57          V65   1.900       .  S
O57          C67   1.265       .  A
O58          V65   1.902       .  S
O58          C68   1.265       .  A
O59          V65   1.900   1_455  S
O59          C69   1.263       .  A
O60          V65   1.899       .  S
O60          C70   1.264       .  A
O61          V66   1.908       .  S
O61          C70   1.266       .  A
O62          V66   1.913   1_455  S
O62          C69   1.267       .  A
O63          V66   1.906       .  S
O63          C68   1.265       .  A
O64          V66   1.909       .  S
O64          C67   1.266       .  A
V65          V66   2.085       .  T
C67        C4541   1.476       .  S
C68        C4559   1.474       .  S
C69        C4610   1.472       .  S
C70        C4520   1.473       .  S
O71          V79   1.920       .  S
O71          C81   1.269       .  A
O72          V79   1.911       .  S
O72          C82   1.267       .  A
O73          V79   1.884       .  S
O73          C83   1.260       .  A
O74          V79   1.892   1_554  S
O74          C84   1.262       .  A
O75          V80   1.913   1_554  S
O75          C84   1.267       .  A
O76          V80   1.912       .  S
O76          C83   1.267       .  A
O77          V80   1.897       .  S
O77          C82   1.262       .  A
O78          V80   1.893       .  S
O78          C81   1.262       .  A
V79          V80   2.084       .  T
C81        C4502   1.479       .  S
C82        C4667   1.471       .  S
C83        C4487   1.466       .  S
C84        C4556   1.470       .  S
O85          V93   1.929       .  S
O85          C95   1.271       .  A
O86          V93   1.920       .  S
O86          C96   1.269       .  A
O87          V93   1.888       .  S
O87          C97   1.260       .  A
O88          V93   1.881       .  S
O88          C98   1.259       .  A
O89          V94   1.913       .  S
O89          C98   1.268       .  A
O90          V94   1.915       .  S
O90          C97   1.268       .  A
O91          V94   1.892       .  S
O91          C96   1.261       .  A
O92          V94   1.888       .  S
O92          C95   1.261       .  A
V93          V94   2.087       .  T
C95        C4433   1.484       .  S
C96        C4466   1.473       .  S
C97        C4451   1.471       .  S
C98        C4412   1.465       .  S
O99         V107   1.910       .  S
O99         C109   1.267       .  A
O100        V107   1.912       .  S
O100        C110   1.267       .  A
O101        V107   1.902       .  S
O101        C111   1.264       .  A
O102        V107   1.894       .  S
O102        C112   1.262       .  A
O103        V108   1.905       .  S
O103        C112   1.265       .  A
O104        V108   1.899       .  S
O104        C111   1.264       .  A
O105        V108   1.896       .  S
O105        C110   1.262       .  A
O106        V108   1.903       .  S
O106        C109   1.264       .  A
V107        V108   2.085       .  T
C109       C4376   1.478       .  S
C110       C4448   1.470       .  S
C111       C4358   1.469       .  S
C112       C4394   1.464       .  S
O113        V121   1.919       .  S
O113        C123   1.269       .  A
O114        V121   1.908       .  S
O114        C124   1.265       .  A
O115        V121   1.893   1_455  S
O115        C125   1.262       .  A
O116        V121   1.893       .  S
O116        C126   1.262       .  A
O117        V122   1.912       .  S
O117        C126   1.267       .  A
O118        V122   1.912   1_455  S
O118        C125   1.266       .  A
O119        V122   1.891       .  S
O119        C124   1.261       .  A
O120        V122   1.889       .  S
O120        C123   1.261       .  A
V121        V122   2.087       .  T
C123       C4538   1.476       .  S
C124       C4397   1.462       .  S
C125       C4340   1.469       .  S
C126       C4322   1.471       .  S
O127        V135   1.911       .  S
O127        C137   1.267       .  A
O128        V135   1.904       .  S
O128        C138   1.266       .  A
O129        V135   1.893       .  S
O129        C139   1.262       .  A
O130        V135   1.894       .  S
O130        C140   1.261       .  A
O131        V136   1.908       .  S
O131        C140   1.265       .  A
O132        V136   1.900       .  S
O132        C139   1.264       .  A
O133        V136   1.900       .  S
O133        C138   1.263       .  A
O134        V136   1.905       .  S
O134        C137   1.265       .  A
V135        V136   2.087       .  T
C137       C4286   1.481       .  S
C138       C4343   1.470       .  S
C139       C4268   1.465       .  S
C140       C4304   1.464       .  S
O141        V149   1.903       .  S
O141        C151   1.265       .  A
O142        V149   1.908       .  S
O142        C152   1.267       .  A
O143        V149   1.893       .  S
O143        C153   1.263       .  A
O144        V149   1.892       .  S
O144        C154   1.261   1_455  A
O145        V150   1.915       .  S
O145        C154   1.268   1_455  A
O146        V150   1.908       .  S
O146        C153   1.266       .  A
O147        V150   1.899       .  S
O147        C152   1.263       .  A
O148        V150   1.901       .  S
O148        C151   1.264       .  A
V149        V150   2.084       .  T
C151       C4757   1.471       .  S
C152       C4250   1.472       .  S
C153       C4235   1.470       .  S
C154       C4469   1.470       .  S
O155        V163   1.916       .  S
O155        C165   1.268       .  A
O156        V163   1.910       .  S
O156        C166   1.266       .  A
O157        V163   1.892       .  S
O157        C167   1.262       .  A
O158        V163   1.889       .  S
O158        C168   1.261       .  A
O159        V164   1.914       .  S
O159        C168   1.268       .  A
O160        V164   1.918       .  S
O160        C167   1.268       .  A
O161        V164   1.893       .  S
O161        C166   1.262       .  A
O162        V164   1.890       .  S
O162        C165   1.261       .  A
V163        V164   2.087       .  T
C165       C4217   1.474       .  S
C166       C4307   1.471       .  S
C167       C4253   1.475       .  S
C168       C4199   1.471       .  S
O169        V177   1.910       .  S
O169        C179   1.266       .  A
O170        V177   1.902       .  S
O170        C180   1.264       .  A
O171        V177   1.893       .  S
O171        C181   1.262       .  A
O172        V177   1.895       .  S
O172        C182   1.263       .  A
O173        V178   1.902       .  S
O173        C182   1.264       .  A
O174        V178   1.910       .  S
O174        C181   1.266       .  A
O175        V178   1.899       .  S
O175        C180   1.263       .  A
O176        V178   1.895       .  S
O176        C179   1.263       .  A
V177        V178   2.089       .  T
C179       C4142   1.473       .  S
C180       C4178   1.465       .  S
C181       C4163   1.470       .  S
C182       C4124   1.466       .  S
O183        V191   1.902       .  S
O183        C193   1.265       .  A
O184        V191   1.902       .  S
O184        C194   1.264       .  A
O185        V191   1.900       .  S
O185        C195   1.264       .  A
O186        V191   1.894       .  S
O186        C196   1.262       .  A
O187        V192   1.907       .  S
O187        C196   1.265       .  A
O188        V192   1.899       .  S
O188        C195   1.264       .  A
O189        V192   1.906       .  S
O189        C194   1.265       .  A
O190        V192   1.908       .  S
O190        C193   1.265       .  A
V191        V192   2.088       .  T
C193       C4592   1.477       .  S
C194       C4160   1.471       .  S
C195       C4088   1.469       .  S
C196       C4106   1.463       .  S
O197        V205   1.913       .  S
O197        C207   1.268       .  A
O198        V205   1.908       .  S
O198        C208   1.267       .  A
O199        V205   1.888   1_554  S
O199        C209   1.260       .  A
O200        V205   1.889       .  S
O200        C210   1.261       .  A
O201        V206   1.915       .  S
O201        C210   1.268       .  A
O202        V206   1.920   1_554  S
O202        C209   1.268       .  A
O203        V206   1.897       .  S
O203        C208   1.262       .  A
O204        V206   1.895       .  S
O204        C207   1.262       .  A
V205        V206   2.087       .  T
C207       C4052   1.476       .  S
C208       C4109   1.473       .  S
C209       C4070   1.471       .  S
C210       C4034   1.473       .  S
O211        V219   1.914       .  S
O211        C221   1.267       .  A
O212        V219   1.907       .  S
O212        C222   1.266       .  A
O213        V219   1.886       .  S
O213        C223   1.261       .  A
O214        V219   1.887       .  S
O214        C224   1.260       .  A
O215        V220   1.925       .  S
O215        C224   1.270       .  A
O216        V220   1.917       .  S
O216        C223   1.268       .  A
O217        V220   1.904       .  S
O217        C222   1.264       .  A
O218        V220   1.901       .  S
O218        C221   1.264       .  A
V219        V220   2.087       .  T
C221       C3998   1.479       .  S
C222       C4073   1.476       .  S
C223       C3980   1.472       .  S
C224       C4019   1.476       .  S
O225        V233   1.918       .  S
O225        C235   1.269       .  A
O226        V233   1.909       .  S
O226        C236   1.266       .  A
O227        V233   1.884       .  S
O227        C237   1.260       .  A
O228        V233   1.885       .  S
O228        C238   1.260       .  A
O229        V234   1.912       .  S
O229        C238   1.267       .  A
O230        V234   1.907       .  S
O230        C237   1.266       .  A
O231        V234   1.896       .  S
O231        C236   1.263       .  A
O232        V234   1.896       .  S
O232        C235   1.262       .  A
V233        V234   2.088       .  T
C235       C3947   1.480       .  S
C236       C3962   1.472       .  S
C237       C3929   1.462       .  S
C238       C4181   1.466   1_554  S
O239        V247   1.916       .  S
O239        C249   1.267       .  A
O240        V247   1.908       .  S
O240        C250   1.266       .  A
O241        V247   1.894       .  S
O241        C251   1.262       .  A
O242        V247   1.901       .  S
O242        C252   1.264       .  A
O243        V248   1.900       .  S
O243        C252   1.264       .  A
O244        V248   1.908       .  S
O244        C251   1.265       .  A
O245        V248   1.907       .  S
O245        C250   1.265       .  A
O246        V248   1.902       .  S
O246        C249   1.265       .  A
V247        V248   2.088       .  T
C249       C4649   1.482       .  S
C250       C4016   1.478       .  S
C251       C3965   1.466       .  S
C252       C3908   1.470       .  S
O253        V261   1.914       .  S
O253        C263   1.268       .  A
O254        V261   1.910       .  S
O254        C264   1.267       .  A
O255        V261   1.884       .  S
O255        C265   1.260       .  A
O256        V261   1.887       .  S
O256        C266   1.260       .  A
O257        V262   1.904       .  S
O257        C266   1.266       .  A
O258        V262   1.914       .  S
O258        C265   1.267       .  A
O259        V262   1.897       .  S
O259        C264   1.262       .  A
O260        V262   1.895       .  S
O260        C263   1.262       .  A
V261        V262   2.088       .  T
C263       C3854   1.476       .  S
C264       C3890   1.472       .  S
C265       C3872   1.466       .  S
C266       C3836   1.463       .  S
O267        V275   1.909       .  S
O267        C277   1.267       .  A
O268        V275   1.902       .  S
O268        C278   1.265       .  A
O269        V275   1.888       .  S
O269        C279   1.261       .  A
O270        V275   1.888       .  S
O270        C280   1.261       .  A
O271        V276   1.914       .  S
O271        C280   1.267       .  A
O272        V276   1.903       .  S
O272        C279   1.265       .  A
O273        V276   1.902       .  S
O273        C278   1.263       .  A
O274        V276   1.902       .  S
O274        C277   1.264       .  A
V275        V276   2.088       .  T
C277       C4001   1.478       .  S
C278       C3875   1.467       .  S
C279       C3800   1.462       .  S
C280       C3818   1.471       .  S
O281        V289   1.916       .  S
O281        C291   1.268       .  A
O282        V289   1.912       .  S
O282        C292   1.267       .  A
O283        V289   1.897       .  S
O283        C293   1.262       .  A
O284        V289   1.900       .  S
O284        C294   1.263       .  A
O285        V290   1.900       .  S
O285        C294   1.264       .  A
O286        V290   1.911       .  S
O286        C293   1.266       .  A
O287        V290   1.896       .  S
O287        C292   1.262       .  A
O288        V290   1.903       .  S
O288        C291   1.265       .  A
V289        V290   2.084       .  T
C291       C4430   1.483       .  S
C292       C3821   1.470       .  S
C293       C3782   1.469       .  S
C294       C3764   1.467       .  S
O295        V303   1.917       .  S
O295        C305   1.268       .  A
O296        V303   1.913       .  S
O296        C306   1.267       .  A
O297        V303   1.886       .  S
O297        C307   1.261       .  A
O298        V303   1.891       .  S
O298        C308   1.262       .  A
O299        V304   1.916       .  S
O299        C308   1.268       .  A
O300        V304   1.914       .  S
O300        C307   1.267       .  A
O301        V304   1.897       .  S
O301        C306   1.263       .  A
O302        V304   1.893       .  S
O302        C305   1.262       .  A
V303        V304   2.087       .  T
C305       C3731   1.476       .  S
C306       C3785   1.474       .  S
C307       C3710   1.469       .  S
C308       C3749   1.475       .  S
O309        V317   1.905       .  S
O309        C319   1.266       .  A
O310        V317   1.908       .  S
O310        C320   1.267       .  A
O311        V317   1.892       .  S
O311        C321   1.261       .  A
O312        V317   1.896       .  S
O312        C322   1.263       .  A
O313        V318   1.904       .  S
O313        C322   1.266       .  A
O314        V318   1.914       .  S
O314        C321   1.267       .  A
O315        V318   1.901       .  S
O315        C320   1.263       .  A
O316        V318   1.902       .  S
O316        C319   1.265       .  A
V317        V318   2.083       .  T
C319       C4145   1.474       .  S
C320       C3746   1.471       .  S
C321       C3695   1.468       .  S
C322       C3674   1.468       .  S
O323        V331   1.923       .  S
O323        C333   1.270       .  A
O324        V331   1.916       .  S
O324        C334   1.267       .  A
O325        V331   1.885       .  S
O325        C335   1.260       .  A
O326        V331   1.891       .  S
O326        C336   1.261       .  A
O327        V332   1.917       .  S
O327        C336   1.268       .  A
O328        V332   1.916       .  S
O328        C335   1.268       .  A
O329        V332   1.892       .  S
O329        C334   1.262       .  A
O330        V332   1.894       .  S
O330        C333   1.262       .  A
V331        V332   2.084       .  T
C333       C4289   1.482       .  S
C334       C3692   1.471       .  S
C335       C3659   1.470       .  S
C336       C3893   1.472       .  S
O337        V345   1.909       .  S
O337        C347   1.267       .  A
O338        V345   1.912       .  S
O338        C348   1.268       .  A
O339        V345   1.890       .  S
O339        C349   1.260       .  A
O340        V345   1.893       .  S
O340        C350   1.262       .  A
O341        V346   1.902       .  S
O341        C350   1.265       .  A
O342        V346   1.908       .  S
O342        C349   1.266       .  A
O343        V346   1.895       .  S
O343        C348   1.262       .  A
O344        V346   1.899       .  S
O344        C347   1.263       .  A
V345        V346   2.085       .  T
C347       C3857   1.474       .  S
C348       C3638   1.472       .  S
C349       C3620   1.462       .  S
C350       C3602   1.465       .  S
O351        V359   1.918   1_545  S
O351        C361   1.268   1_545  A
O352        V359   1.909       .  S
O352        C362   1.266       .  A
O353        V359   1.887       .  S
O353        C363   1.261       .  A
O354        V359   1.889       .  S
O354        C364   1.261       .  A
O355        V360   1.918       .  S
O355        C364   1.268       .  A
O356        V360   1.920       .  S
O356        C363   1.269       .  A
O357        V360   1.894       .  S
O357        C362   1.262       .  A
O358        V360   1.890       .  S
O358        C361   1.262       .  A
V359        V360   2.085       .  T
C361       C3566   1.476   1_565  S
C362       C3623   1.467       .  S
C363       C3548   1.474       .  S
C364       C3584   1.473       .  S
O365        V373   1.920       .  S
O365        C375   1.270       .  A
O366        V373   1.915       .  S
O366        C376   1.267       .  A
O367        V373   1.882       .  S
O367        C377   1.260       .  A
O368        V373   1.890       .  S
O368        C378   1.261       .  A
O369        V374   1.917       .  S
O369        C378   1.268       .  A
O370        V374   1.917       .  S
O370        C377   1.268       .  A
O371        V374   1.892       .  S
O371        C376   1.261       .  A
O372        V374   1.892       .  S
O372        C375   1.262       .  A
V373        V374   2.084       .  T
C375       C3728   1.478       .  S
C376       C3533   1.469       .  S
C377       C3497   1.469       .  S
C378       C3515   1.473       .  S
O379        V387   1.908       .  S
O379        C389   1.267       .  A
O380        V387   1.909   1_565  S
O380        C390   1.267       .  A
O381        V387   1.894       .  S
O381        C391   1.262       .  A
O382        V387   1.896   1_565  S
O382        C392   1.263       .  A
O383        V388   1.904   1_565  S
O383        C392   1.265       .  A
O384        V388   1.912       .  S
O384        C391   1.267       .  A
O385        V388   1.900       .  S
O385        C390   1.263   1_545  A
O386        V388   1.907       .  S
O386        C389   1.265       .  A
V387        V388   2.083       .  T
C389       C3476   1.480       .  S
C390       C3587   1.472       .  S
C391       C3530   1.471       .  S
C392       C3458   1.468       .  S
O393        V401   1.903       .  S
O393        C403   1.266       .  A
O394        V401   1.910       .  S
O394        C404   1.266       .  A
O395        V401   1.888       .  S
O395        C405   1.260       .  A
O396        V401   1.892       .  S
O396        C406   1.262       .  A
O397        V402   1.899       .  S
O397        C406   1.264       .  A
O398        V402   1.907       .  S
O398        C405   1.265       .  A
O399        V402   1.899       .  S
O399        C404   1.263       .  A
O400        V402   1.902       .  S
O400        C403   1.264       .  A
V401        V402   2.086       .  T
C403       C3422   1.472       .  S
C404       C3512   1.473       .  S
C405       C3443   1.460       .  S
C406       C3404   1.462       .  S
O407        V415   1.918       .  S
O407        C417   1.268       .  A
O408        V415   1.907       .  S
O408        C418   1.266       .  A
O409        V415   1.882       .  S
O409        C419   1.260       .  A
O410        V415   1.889       .  S
O410        C420   1.261       .  A
O411        V416   1.915       .  S
O411        C420   1.268       .  A
O412        V416   1.914       .  S
O412        C419   1.268       .  A
O413        V416   1.894       .  S
O413        C418   1.261       .  A
O414        V416   1.891       .  S
O414        C417   1.262       .  A
V415        V416   2.087       .  T
C417       C3386   1.477       .  S
C418       C3440   1.465       .  S
C419       C3371   1.467       .  S
C420       C3641   1.472   1_545  S
O421        V429   1.911       .  S
O421        C431   1.267       .  A
O422        V429   1.909       .  S
O422        C432   1.267       .  A
O423        V429   1.894       .  S
O423        C433   1.262       .  A
O424        V429   1.889       .  S
O424        C434   1.261   1_554  A
O425        V430   1.912       .  S
O425        C434   1.267   1_554  A
O426        V430   1.904       .  S
O426        C433   1.266       .  A
O427        V430   1.895       .  S
O427        C432   1.262       .  A
O428        V430   1.901       .  S
O428        C431   1.264       .  A
V429        V430   2.083       .  T
C431       C3944   1.477       .  S
C432       C3350   1.467       .  S
C433       C3317   1.466       .  S
C434       C3332   1.466       .  S
O435        V443   1.923       .  S
O435        C445   1.270       .  A
O436        V443   1.917       .  S
O436        C446   1.268       .  A
O437        V443   1.886       .  S
O437        C447   1.260       .  A
O438        V443   1.879       .  S
O438        C448   1.258       .  A
O439        V444   1.909       .  S
O439        C448   1.267       .  A
O440        V444   1.914       .  S
O440        C447   1.267       .  A
O441        V444   1.896       .  S
O441        C446   1.262       .  A
O442        V444   1.892       .  S
O442        C445   1.262       .  A
V443        V444   2.086       .  T
C445       C3278   1.480       .  S
C446       C3299   1.477       .  S
C447       C3353   1.469   1_545  S
C448       C3263   1.460       .  S
O449        V457   1.916   1_545  S
O449        C459   1.268       .  A
O450        V457   1.910       .  S
O450        C460   1.266       .  A
O451        V457   1.894       .  S
O451        C461   1.263       .  A
O452        V457   1.891       .  S
O452        C462   1.261       .  A
O453        V458   1.916       .  S
O453        C462   1.268       .  A
O454        V458   1.915       .  S
O454        C461   1.267       .  A
O455        V458   1.891       .  S
O455        C460   1.261       .  A
O456        V458   1.887       .  S
O456        C459   1.261   1_565  A
V457        V458   2.087       .  T
C459       C3425   1.473       .  S
C460       C3335   1.464       .  S
C461       C3242   1.476       .  S
C462       C3224   1.474       .  S
O463        V471   1.906       .  S
O463        C473   1.266       .  A
O464        V471   1.909       .  S
O464        C474   1.266       .  A
O465        V471   1.899       .  S
O465        C475   1.263       .  A
O466        V471   1.895       .  S
O466        C476   1.262       .  A
O467        V472   1.916       .  S
O467        C476   1.267       .  A
O468        V472   1.908       .  S
O468        C475   1.266       .  A
O469        V472   1.902       .  S
O469        C474   1.264       .  A
O470        V472   1.907       .  S
O470        C473   1.265       .  A
V471        V472   2.084       .  T
C473       C3569   1.478       .  S
C474       C3206   1.474       .  S
C475       C3188   1.474       .  S
C476       C3296   1.471       .  S
O477        V485   1.921       .  S
O477        C487   1.269       .  A
O478        V485   1.915       .  S
O478        C488   1.268       .  A
O479        V485   1.890   1_554  S
O479        C489   1.262       .  A
O480        V485   1.887       .  S
O480        C490   1.260       .  A
O481        V486   1.916       .  S
O481        C490   1.268       .  A
O482        V486   1.919   1_554  S
O482        C489   1.268       .  A
O483        V486   1.891       .  S
O483        C488   1.261       .  A
O484        V486   1.890       .  S
O484        C487   1.262       .  A
V485        V486   2.086       .  T
C487       C4055   1.478       .  S
C488       C3170   1.470       .  S
C489       C3209   1.477       .  S
C490       C3152   1.471       .  S
O491        V499   1.911       .  S
O491        C501   1.267       .  A
O492        V499   1.912       .  S
O492        C502   1.267       .  A
O493        V499   1.899   1_565  S
O493        C503   1.263       .  A
O494        V499   1.896       .  S
O494        C504   1.262       .  A
O495        V500   1.913       .  S
O495        C504   1.267       .  A
O496        V500   1.908   1_565  S
O496        C503   1.266       .  A
O497        V500   1.902       .  S
O497        C502   1.263       .  A
O498        V500   1.906       .  S
O498        C501   1.265       .  A
V499        V500   2.084       .  T
C501       C3134   1.482       .  S
C502       C3245   1.475       .  S
C503       C3119   1.474       .  S
C504       C3173   1.470       .  S
O505        V513   1.921       .  S
O505        C515   1.268       .  A
O506        V513   1.907       .  S
O506        C516   1.266       .  A
O507        V513   1.891       .  S
O507        C517   1.262   1_554  A
O508        V513   1.898       .  S
O508        C518   1.263       .  A
O509        V514   1.908       .  S
O509        C518   1.266       .  A
O510        V514   1.917       .  S
O510        C517   1.267   1_554  A
O511        V514   1.901       .  S
O511        C516   1.263       .  A
O512        V514   1.901       .  S
O512        C515   1.265       .  A
V513        V514   2.087       .  T
C515       C4703   1.486       .  S
C516       C3098   1.471       .  S
C517       C3083   1.473       .  S
C518       C3065   1.474       .  S
O519        V527   1.924       .  S
O519        C529   1.270   1_565  A
O520        V527   1.916       .  S
O520        C530   1.268       .  A
O521        V527   1.887       .  S
O521        C531   1.261       .  A
O522        V527   1.891   1_545  S
O522        C532   1.261       .  A
O523        V528   1.915   1_545  S
O523        C532   1.267       .  A
O524        V528   1.912       .  S
O524        C531   1.267       .  A
O525        V528   1.895       .  S
O525        C530   1.262       .  A
O526        V528   1.894   1_545  S
O526        C529   1.262       .  A
V527        V528   2.085       .  T
C529       C3137   1.482       .  S
C530       C3044   1.475       .  S
C531       C3029   1.469       .  S
C532       C3101   1.472       .  S
O533        V541   1.911       .  S
O533        C543   1.267       .  A
O534        V541   1.911       .  S
O534        C544   1.267       .  A
O535        V541   1.895       .  S
O535        C545   1.262   1_455  A
O536        V541   1.893       .  S
O536        C546   1.262       .  A
O537        V542   1.905       .  S
O537        C546   1.265       .  A
O538        V542   1.913       .  S
O538        C545   1.267   1_455  A
O539        V542   1.901       .  S
O539        C544   1.263       .  A
O540        V542   1.904       .  S
O540        C543   1.264       .  A
V541        V542   2.085       .  T
C543       C2990   1.480       .  S
C544       C3008   1.476       .  S
C545       C3047   1.469       .  S
C546       C2972   1.466       .  S
O547        V555   1.913       .  S
O547        C557   1.267       .  A
O548        V555   1.906       .  S
O548        C558   1.266       .  A
O549        V555   1.888       .  S
O549        C559   1.262       .  A
O550        V555   1.889   1_554  S
O550        C560   1.261       .  A
O551        V556   1.921   1_554  S
O551        C560   1.268       .  A
O552        V556   1.919       .  S
O552        C559   1.268       .  A
O553        V556   1.899       .  S
O553        C558   1.263       .  A
O554        V556   1.897       .  S
O554        C557   1.263       .  A
V555        V556   2.087       .  T
C557       C4505   1.477       .  S
C558       C2957   1.473       .  S
C559       C2936   1.475       .  S
C560       C3011   1.475       .  S
O561        V569   1.910       .  S
O561        C571   1.267       .  A
O562        V569   1.908       .  S
O562        C572   1.266       .  A
O563        V569   1.895       .  S
O563        C573   1.261       .  A
O564        V569   1.897       .  S
O564        C574   1.263       .  A
O565        V570   1.900       .  S
O565        C574   1.264       .  A
O566        V570   1.910       .  S
O566        C573   1.266       .  A
O567        V570   1.907       .  S
O567        C572   1.264       .  A
O568        V570   1.904       .  S
O568        C571   1.265       .  A
V569        V570   2.088       .  T
C571       C3281   1.480       .  S
C572       C2918   1.476       .  S
C573       C2954   1.466   1_545  S
C574       C2903   1.467       .  S
O575        V583   1.914       .  S
O575        C585   1.267       .  A
O576        V583   1.905       .  S
O576        C586   1.266       .  A
O577        V583   1.895       .  S
O577        C587   1.262       .  A
O578        V583   1.891   1_455  S
O578        C588   1.262       .  A
O579        V584   1.920   1_455  S
O579        C588   1.268       .  A
O580        V584   1.908       .  S
O580        C587   1.266       .  A
O581        V584   1.899       .  S
O581        C586   1.262       .  A
O582        V584   1.895       .  S
O582        C585   1.263       .  A
V583        V584   2.088       .  T
C585       C2885   1.475       .  S
C586       C3080   1.469       .  S
C587       C2864   1.471       .  S
C588       C2921   1.476       .  S
O589        V597   1.917       .  S
O589        C599   1.268       .  A
O590        V597   1.907       .  S
O590        C600   1.266       .  A
O591        V597   1.896       .  S
O591        C601   1.263   1_455  A
O592        V597   1.892       .  S
O592        C602   1.262       .  A
O593        V598   1.913       .  S
O593        C602   1.267       .  A
O594        V598   1.913   1_655  S
O594        C601   1.267       .  A
O595        V598   1.900       .  S
O595        C600   1.263       .  A
O596        V598   1.899       .  S
O596        C599   1.264       .  A
V597        V598   2.085       .  T
C599       C2993   1.480       .  S
C600       C2846   1.471       .  S
C601       C2831   1.474       .  S
C602       C2810   1.473       .  S
O603        V611   1.903       .  S
O603        C613   1.266       .  A
O604        V611   1.908       .  S
O604        C614   1.266       .  A
O605        V611   1.896       .  S
O605        C615   1.263       .  A
O606        V611   1.891       .  S
O606        C616   1.261       .  A
O607        V612   1.913       .  S
O607        C616   1.267       .  A
O608        V612   1.907       .  S
O608        C615   1.266       .  A
O609        V612   1.899       .  S
O609        C614   1.264       .  A
O610        V612   1.909       .  S
O610        C613   1.265       .  A
V611        V612   2.084       .  T
C613       C3389   1.477       .  S
C614       C2828   1.472       .  S
C615       C2774   1.471       .  S
C616       C2795   1.467   1_545  S
O617        V625   1.915       .  S
O617        C627   1.268       .  A
O618        V625   1.914       .  S
O618        C628   1.267       .  A
O619        V625   1.886       .  S
O619        C629   1.261       .  A
O620        V625   1.877       .  S
O620        C630   1.259       .  A
O621        V626   1.910       .  S
O621        C630   1.266       .  A
O622        V626   1.912       .  S
O622        C629   1.267       .  A
O623        V626   1.889       .  S
O623        C628   1.261       .  A
O624        V626   1.891       .  S
O624        C627   1.261       .  A
V625        V626   2.084       .  T
C627       C4214   1.473       .  S
C628       C2792   1.467       .  S
C629       C2756   1.467       .  S
C630       C2738   1.461       .  S
O631        V639   1.909       .  S
O631        C641   1.267       .  A
O632        V639   1.907       .  S
O632        C642   1.266       .  A
O633        V639   1.903       .  S
O633        C643   1.264       .  A
O634        V639   1.895       .  S
O634        C644   1.262       .  A
O635        V640   1.911       .  S
O635        C644   1.266       .  A
O636        V640   1.905       .  S
O636        C643   1.266       .  A
O637        V640   1.898       .  S
O637        C642   1.263       .  A
O638        V640   1.904       .  S
O638        C641   1.265       .  A
V639        V640   2.083       .  T
C641       C4379   1.479       .  S
C642       C2720   1.467       .  S
C643       C2705   1.473       .  S
C644       C2849   1.468       .  S
O645        V653   1.916       .  S
O645        C655   1.268   1_565  A
O646        V653   1.908       .  S
O646        C656   1.266       .  A
O647        V653   1.889   1_545  S
O647        C657   1.261       .  A
O648        V653   1.892       .  S
O648        C658   1.261       .  A
O649        V654   1.901       .  S
O649        C658   1.265       .  A
O650        V654   1.911   1_545  S
O650        C657   1.267       .  A
O651        V654   1.902       .  S
O651        C656   1.263       .  A
O652        V654   1.899   1_545  S
O652        C655   1.263       .  A
V653        V654   2.088       .  T
C655       C3479   1.479       .  S
C656       C2684   1.473       .  S
C657       C2723   1.469       .  S
C658       C2666   1.463       .  S
O659        V667   1.906       .  S
O659        C669   1.266       .  A
O660        V667   1.901       .  S
O660        C670   1.264       .  A
O661        V667   1.888       .  S
O661        C671   1.262       .  A
O662        V667   1.887       .  S
O662        C672   1.260   1_655  A
O663        V668   1.917   1_455  S
O663        C672   1.267       .  A
O664        V668   1.910       .  S
O664        C671   1.266       .  A
O665        V668   1.901       .  S
O665        C670   1.264       .  A
O666        V668   1.900       .  S
O666        C669   1.264       .  A
V667        V668   2.089       .  T
C669       C2882   1.475       .  S
C670       C2759   1.467       .  S
C671       C2648   1.469       .  S
C672       C2687   1.470       .  S
O673        V681   1.925       .  S
O673        C683   1.270       .  A
O674        V681   1.918       .  S
O674        C684   1.269       .  A
O675        V681   1.890       .  S
O675        C685   1.261       .  A
O676        V681   1.886       .  S
O676        C686   1.259       .  A
O677        V682   1.912       .  S
O677        C686   1.268       .  A
O678        V682   1.918       .  S
O678        C685   1.268       .  A
O679        V682   1.895       .  S
O679        C684   1.262       .  A
O680        V682   1.890       .  S
O680        C683   1.261       .  A
V681        V682   2.085       .  T
C683       C2594   1.480       .  S
C684       C2630   1.476       .  S
C685       C2612   1.473       .  S
C686       C4127   1.467       .  S
O687        V695   1.913       .  S
O687        C697   1.267       .  A
O688        V695   1.914       .  S
O688        C698   1.268       .  A
O689        V695   1.890       .  S
O689        C699   1.261       .  A
O690        V695   1.884       .  S
O690        C700   1.260       .  A
O691        V696   1.911       .  S
O691        C700   1.266       .  A
O692        V696   1.902       .  S
O692        C699   1.265       .  A
O693        V696   1.898       .  S
O693        C698   1.263       .  A
O694        V696   1.899       .  S
O694        C697   1.264       .  A
V695        V696   2.085       .  T
C697       C2558   1.477       .  S
C698       C2615   1.476       .  S
C699       C4484   1.463       .  S
C700       C2576   1.464       .  S
O701        V709   1.917       .  S
O701        C711   1.269       .  A
O702        V709   1.913       .  S
O702        C712   1.267       .  A
O703        V709   1.884       .  S
O703        C713   1.259       .  A
O704        V709   1.876       .  S
O704        C714   1.259       .  A
O705        V710   1.916       .  S
O705        C714   1.268       .  A
O706        V710   1.918       .  S
O706        C713   1.269       .  A
O707        V710   1.895       .  S
O707        C712   1.262       .  A
O708        V710   1.894       .  S
O708        C711   1.262       .  A
V709        V710   2.085       .  T
C711       C2504   1.478       .  S
C712       C2540   1.471       .  S
C713       C2522   1.470       .  S
C714       C3605   1.464       .  S
O715        V723   1.900       .  S
O715        C725   1.264       .  A
O716        V723   1.901       .  S
O716        C726   1.265       .  A
O717        V723   1.899       .  S
O717        C727   1.264       .  A
O718        V723   1.897       .  S
O718        C728   1.262       .  A
O719        V724   1.918       .  S
O719        C728   1.268       .  A
O720        V724   1.908       .  S
O720        C727   1.266       .  A
O721        V724   1.902       .  S
O721        C726   1.263       .  A
O722        V724   1.909       .  S
O722        C725   1.266       .  A
V723        V724   2.085       .  T
C725       C2486   1.476       .  S
C726       C2525   1.468       .  S
C727       C3116   1.474       .  S
C728       C2633   1.474       .  S
O729        V737   1.912       .  S
O729        C739   1.267       .  A
O730        V737   1.908       .  S
O730        C740   1.265       .  A
O731        V737   1.888       .  S
O731        C741   1.261       .  A
O732        V737   1.885       .  S
O732        C742   1.260       .  A
O733        V738   1.908       .  S
O733        C742   1.266       .  A
O734        V738   1.907       .  S
O734        C741   1.266       .  A
O735        V738   1.887       .  S
O735        C740   1.260       .  A
O736        V738   1.886       .  S
O736        C739   1.261       .  A
V737        V738   2.088       .  T
C739       C2450   1.469       .  S
C740       C2579   1.459       .  S
C741       C2471   1.466       .  S
C742       C4415   1.464       .  S
O743        V751   1.905       .  S
O743        C753   1.266       .  A
O744        V751   1.906       .  S
O744        C754   1.265       .  A
O745        V751   1.901       .  S
O745        C755   1.263       .  A
O746        V751   1.893       .  S
O746        C756   1.262       .  A
O747        V752   1.906       .  S
O747        C756   1.265       .  A
O748        V752   1.898       .  S
O748        C755   1.264       .  A
O749        V752   1.895       .  S
O749        C754   1.262       .  A
O750        V752   1.900       .  S
O750        C753   1.264       .  A
V751        V752   2.084       .  T
C753       C2432   1.473       .  S
C754       C2468   1.465       .  S
C755       C2651   1.466       .  S
C756       C2543   1.462       .  S
O757        V765   1.917       .  S
O757        C767   1.268       .  A
O758        V765   1.912       .  S
O758        C768   1.266       .  A
O759        V765   1.890       .  S
O759        C769   1.261       .  A
O760        V765   1.882       .  S
O760        C770   1.260       .  A
O761        V766   1.909       .  S
O761        C770   1.266       .  A
O762        V766   1.906       .  S
O762        C769   1.266       .  A
O763        V766   1.898       .  S
O763        C768   1.263       .  A
O764        V766   1.895       .  S
O764        C767   1.263       .  A
V765        V766   2.085       .  T
C767       C2378   1.478       .  S
C768       C2414   1.472       .  S
C769       C2396   1.466       .  S
C770       C2669   1.463       .  S
O771        V779   1.908       .  S
O771        C781   1.267       .  A
O772        V779   1.906       .  S
O772        C782   1.265       .  A
O773        V779   1.899       .  S
O773        C783   1.264       .  A
O774        V779   1.900       .  S
O774        C784   1.263       .  A
O775        V780   1.917       .  S
O775        C784   1.268       .  A
O776        V780   1.908       .  S
O776        C783   1.266       .  A
O777        V780   1.895       .  S
O777        C782   1.262       .  A
O778        V780   1.909       .  S
O778        C781   1.266       .  A
V779        V780   2.084       .  T
C781       C2342   1.482       .  S
C782       C2399   1.466       .  S
C783       C4232   1.472       .  S
C784       C2360   1.477       .  S
O785        V793   1.908       .  S
O785        C795   1.267       .  A
O786        V793   1.909       .  S
O786        C796   1.266       .  A
O787        V793   1.892       .  S
O787        C797   1.262       .  A
O788        V793   1.891       .  S
O788        C798   1.261       .  A
O789        V794   1.921       .  S
O789        C798   1.269       .  A
O790        V794   1.911       .  S
O790        C797   1.267       .  A
O791        V794   1.897       .  S
O791        C796   1.262       .  A
O792        V794   1.905       .  S
O792        C795   1.265       .  A
V793        V794   2.084       .  T
C795       C2288   1.479       .  S
C796       C2324   1.470       .  S
C797       C4091   1.470       .  S
C798       C2309   1.477       .  S
O799        V807   1.922       .  S
O799        C809   1.270       .  A
O800        V807   1.919       .  S
O800        C810   1.268       .  A
O801        V807   1.885       .  S
O801        C811   1.260       .  A
O802        V807   1.878       .  S
O802        C812   1.259       .  A
O803        V808   1.913       .  S
O803        C812   1.267       .  A
O804        V808   1.914       .  S
O804        C811   1.267       .  A
O805        V808   1.901       .  S
O805        C810   1.264       .  A
O806        V808   1.899       .  S
O806        C809   1.263       .  A
V807        V808   2.085       .  T
C809       C2507   1.484       .  S
C810       C2363   1.481       .  S
C811       C2327   1.468       .  S
C812       C3839   1.464       .  S
O813        V821   1.911       .  S
O813        C823   1.267       .  A
O814        V821   1.910       .  S
O814        C824   1.267       .  A
O815        V821   1.902       .  S
O815        C825   1.264       .  A
O816        V821   1.896       .  S
O816        C826   1.262       .  A
O817        V822   1.913       .  S
O817        C826   1.267       .  A
O818        V822   1.905       .  S
O818        C825   1.266       .  A
O819        V822   1.896       .  S
O819        C824   1.262       .  A
O820        V822   1.902       .  S
O820        C823   1.265       .  A
V821        V822   2.082       .  T
C823       C2561   1.479       .  S
C824       C2270   1.470       .  S
C825       C2939   1.474       .  S
C826       C2417   1.470       .  S
O827        V835   1.926       .  S
O827        C837   1.270       .  A
O828        V835   1.920       .  S
O828        C838   1.268       .  A
O829        V835   1.893       .  S
O829        C839   1.262       .  A
O830        V835   1.891       .  S
O830        C840   1.261       .  A
O831        V836   1.913       .  S
O831        C840   1.267       .  A
O832        V836   1.913       .  S
O832        C839   1.267       .  A
O833        V836   1.898       .  S
O833        C838   1.262       .  A
O834        V836   1.892       .  S
O834        C837   1.262       .  A
V835        V836   2.086       .  T
C837       C2252   1.483       .  S
C838       C2306   1.476       .  S
C839       C2273   1.473       .  S
C840       C3227   1.473       .  S
O841        V849   1.911       .  S
O841        C851   1.266       .  A
O842        V849   1.904       .  S
O842        C852   1.265       .  A
O843        V849   1.884       .  S
O843        C853   1.260       .  A
O844        V849   1.890       .  S
O844        C854   1.262       .  A
O845        V850   1.910       .  S
O845        C854   1.266       .  A
O846        V850   1.919       .  S
O846        C853   1.268       .  A
O847        V850   1.904       .  S
O847        C852   1.264       .  A
O848        V850   1.900       .  S
O848        C851   1.264       .  A
V849        V850   2.088       .  T
C851       C2198   1.477       .  S
C852       C2234   1.471       .  S
C853       C2219   1.468       .  S
C854       C4196   1.470       .  S
O855        V863   1.924       .  S
O855        C865   1.270       .  A
O856        V863   1.916       .  S
O856        C866   1.267       .  A
O857        V863   1.884       .  S
O857        C867   1.260       .  A
O858        V863   1.892       .  S
O858        C868   1.262       .  A
O859        V864   1.912       .  S
O859        C868   1.266       .  A
O860        V864   1.906       .  S
O860        C867   1.266       .  A
O861        V864   1.892       .  S
O861        C866   1.262       .  A
O862        V864   1.894       .  S
O862        C865   1.262       .  A
V863        V864   2.087       .  T
C865       C2162   1.484       .  S
C866       C2180   1.473       .  S
C867       C3803   1.463       .  S
C868       C2237   1.471       .  S
O869        V877   1.916       .  S
O869        C879   1.268       .  A
O870        V877   1.905       .  S
O870        C880   1.266       .  A
O871        V877   1.897       .  S
O871        C881   1.262       .  A
O872        V877   1.895       .  S
O872        C882   1.262       .  A
O873        V878   1.921       .  S
O873        C882   1.269       .  A
O874        V878   1.911       .  S
O874        C881   1.267       .  A
O875        V878   1.901       .  S
O875        C880   1.263       .  A
O876        V878   1.897       .  S
O876        C879   1.263       .  A
V877        V878   2.087       .  T
C879       C2291   1.479       .  S
C880       C2216   1.470       .  S
C881       C4577   1.474       .  S
C882       C2144   1.480       .  S
O883        V891   1.907       .  S
O883        C893   1.266       .  A
O884        V891   1.908       .  S
O884        C894   1.266       .  A
O885        V891   1.895       .  S
O885        C895   1.262       .  A
O886        V891   1.901       .  S
O886        C896   1.264       .  A
O887        V892   1.899       .  S
O887        C896   1.264       .  A
O888        V892   1.907       .  S
O888        C895   1.265       .  A
O889        V892   1.895       .  S
O889        C894   1.262       .  A
O890        V892   1.904       .  S
O890        C893   1.265       .  A
V891        V892   2.087       .  T
C893       C2381   1.476       .  S
C894       C2126   1.469       .  S
C895       C2183   1.465       .  S
C896       C3461   1.469       .  S
O897        V905   1.917       .  S
O897        C907   1.269       .  A
O898        V905   1.913       .  S
O898        C908   1.267       .  A
O899        V905   1.877       .  S
O899        C909   1.259       .  A
O900        V905   1.884       .  S
O900        C910   1.259       .  A
O901        V906   1.920       .  S
O901        C910   1.269       .  A
O902        V906   1.921       .  S
O902        C909   1.269       .  A
O903        V906   1.894       .  S
O903        C908   1.262       .  A
O904        V906   1.895       .  S
O904        C907   1.262       .  A
V905        V906   2.085       .  T
C907       C2090   1.478       .  S
C908       C2108   1.470       .  S
C909       C3314   1.470       .  S
C910       C2129   1.471       .  S
O911        V919   1.905       .  S
O911        C921   1.266       .  A
O912        V919   1.910       .  S
O912        C922   1.267       .  A
O913        V919   1.891       .  S
O913        C923   1.261       .  A
O914        V919   1.892       .  S
O914        C924   1.262       .  A
O915        V920   1.903       .  S
O915        C924   1.265       .  A
O916        V920   1.913       .  S
O916        C923   1.267       .  A
O917        V920   1.907       .  S
O917        C922   1.265       .  A
O918        V920   1.915       .  S
O918        C921   1.267       .  A
V919        V920   2.083       .  T
C921       C2072   1.484       .  S
C922       C2147   1.477       .  S
C923       C2111   1.468       .  S
C924       C2975   1.466       .  S
O925        V933   1.912       .  S
O925        C935   1.267       .  A
O926        V933   1.906       .  S
O926        C936   1.265       .  A
O927        V933   1.885       .  S
O927        C937   1.261       .  A
O928        V933   1.892       .  S
O928        C938   1.262       .  A
O929        V934   1.906       .  S
O929        C938   1.266       .  A
O930        V934   1.915       .  S
O930        C937   1.266       .  A
O931        V934   1.901       .  S
O931        C936   1.264       .  A
O932        V934   1.899       .  S
O932        C935   1.263       .  A
V933        V934   2.088       .  T
C935       C2021   1.478       .  S
C936       C2054   1.471       .  S
C937       C2036   1.467       .  S
C938       C3155   1.468       .  S
O939        V947   1.913       .  S
O939        C949   1.267       .  A
O940        V947   1.903       .  S
O940        C950   1.266       .  A
O941        V947   1.884       .  S
O941        C951   1.260       .  A
O942        V947   1.884       .  S
O942        C952   1.260       .  A
O943        V948   1.914       .  S
O943        C952   1.267       .  A
O944        V948   1.922       .  S
O944        C951   1.269       .  A
O945        V948   1.902       .  S
O945        C950   1.262       .  A
O946        V948   1.898       .  S
O946        C949   1.263       .  A
V947        V948   2.088       .  T
C949       C2597   1.478       .  S
C950       C2000   1.469       .  S
C951       C1982   1.471       .  S
C952       C3677   1.468       .  S
O953        V961   1.904       .  S
O953        C963   1.265       .  A
O954        V961   1.900       .  S
O954        C964   1.264       .  A
O955        V961   1.890       .  S
O955        C965   1.262       .  A
O956        V961   1.888       .  S
O956        C966   1.261       .  A
O957        V962   1.913       .  S
O957        C966   1.267       .  A
O958        V962   1.902       .  S
O958        C965   1.265       .  A
O959        V962   1.898       .  S
O959        C964   1.263       .  A
O960        V962   1.893       .  S
O960        C963   1.262       .  A
V961        V962   2.089       .  T
C963       C1964   1.468       .  S
C964       C2039   1.463       .  S
C965       C3368   1.464       .  S
C966       C2003   1.468       .  S
O967        V975   1.921       .  S
O967        C977   1.269       .  A
O968        V975   1.913       .  S
O968        C978   1.267       .  A
O969        V975   1.886       .  S
O969        C979   1.260       .  A
O970        V975   1.889       .  S
O970        C980   1.261       .  A
O971        V976   1.914       .  S
O971        C980   1.267       .  A
O972        V976   1.915       .  S
O972        C979   1.268       .  A
O973        V976   1.890       .  S
O973        C978   1.262       .  A
O974        V976   1.888       .  S
O974        C977   1.262       .  A
V975        V976   2.086       .  T
C977       C2435   1.476       .  S
C978       C1949   1.470       .  S
C979       C2867   1.469       .  S
C980       C2057   1.470       .  S
O981        V989   1.912       .  S
O981        C991   1.266       .  A
O982        V989   1.905       .  S
O982        C992   1.266       .  A
O983        V989   1.891       .  S
O983        C993   1.262       .  A
O984        V989   1.880       .  S
O984        C994   1.259       .  A
O985        V990   1.915       .  S
O985        C994   1.267       .  A
O986        V990   1.908       .  S
O986        C993   1.266       .  A
O987        V990   1.904       .  S
O987        C992   1.264       .  A
O988        V990   1.901       .  S
O988        C991   1.264       .  A
V989        V990   2.088       .  T
C991       C1910   1.478       .  S
C992       C1985   1.474       .  S
C993       C4361   1.469       .  S
C994       C1931   1.465       .  S
O995       V1003   1.903       .  S
O995       C1005   1.265       .  A
O996       V1003   1.903       .  S
O996       C1006   1.265       .  A
O997       V1003   1.895       .  S
O997       C1007   1.262       .  A
O998       V1003   1.893       .  S
O998       C1008   1.263       .  A
O999       V1004   1.901       .  S
O999       C1008   1.264       .  A
O1000      V1004   1.910       .  S
O1000      C1007   1.266       .  A
O1001      V1004   1.896       .  S
O1001      C1006   1.262       .  A
O1002      V1004   1.903       .  S
O1002      C1005   1.265       .  A
V1003      V1004   2.084       .  T
C1005      C1892   1.474       .  S
C1006      C1928   1.465       .  S
C1007      C1946   1.467       .  S
C1008      C4631   1.464       .  S
O1009      V1017   1.910       .  S
O1009      C1019   1.267       .  A
O1010      V1017   1.911       .  S
O1010      C1020   1.268       .  A
O1011      V1017   1.892       .  S
O1011      C1021   1.261       .  A
O1012      V1017   1.889       .  S
O1012      C1022   1.261       .  A
O1013      V1018   1.903       .  S
O1013      C1022   1.265       .  A
O1014      V1018   1.916       .  S
O1014      C1021   1.268       .  A
O1015      V1018   1.899       .  S
O1015      C1020   1.263       .  A
O1016      V1018   1.906       .  S
O1016      C1019   1.265       .  A
V1017      V1018   2.084       .  T
C1019      C2255   1.481       .  S
C1020      C1874   1.474       .  S
C1021      C1859   1.471       .  S
C1022      C3407   1.463       .  S
O1023      V1031   1.916       .  S
O1023      C1033   1.269       .  A
O1024      V1031   1.915       .  S
O1024      C1034   1.267       .  A
O1025      V1031   1.884       .  S
O1025      C1035   1.260       .  A
O1026      V1031   1.889       .  S
O1026      C1036   1.261       .  A
O1027      V1032   1.919       .  S
O1027      C1036   1.269       .  A
O1028      V1032   1.921       .  S
O1028      C1035   1.269       .  A
O1029      V1032   1.897       .  S
O1029      C1034   1.263       .  A
O1030      V1032   1.896       .  S
O1030      C1033   1.262       .  A
V1031      V1032   2.084       .  T
C1033      C1913   1.478       .  S
C1034      C1856   1.474       .  S
C1035      C2702   1.474       .  S
C1036      C1841   1.474       .  S
O1037      V1045   1.921       .  S
O1037      C1047   1.269       .  A
O1038      V1045   1.913       .  S
O1038      C1048   1.267       .  A
O1039      V1045   1.885       .  S
O1039      C1049   1.260       .  A
O1040      V1045   1.892       .  S
O1040      C1050   1.262       .  A
O1041      V1046   1.915       .  S
O1041      C1050   1.267       .  A
O1042      V1046   1.914       .  S
O1042      C1049   1.268       .  A
O1043      V1046   1.893       .  S
O1043      C1048   1.261       .  A
O1044      V1046   1.890       .  S
O1044      C1047   1.261       .  A
V1045      V1046   2.087       .  T
C1047      C1802   1.478       .  S
C1048      C1820   1.468       .  S
C1049      C3656   1.468       .  S
C1050      C1877   1.473       .  S
O1051      V1059   1.911       .  S
O1051      C1061   1.267       .  A
O1052      V1059   1.913       .  S
O1052      C1062   1.267       .  A
O1053      V1059   1.891       .  S
O1053      C1063   1.261       .  A
O1054      V1059   1.897       .  S
O1054      C1064   1.263       .  A
O1055      V1060   1.909       .  S
O1055      C1064   1.266       .  A
O1056      V1060   1.912       .  S
O1056      C1063   1.267       .  A
O1057      V1060   1.902       .  S
O1057      C1062   1.264       .  A
O1058      V1060   1.904       .  S
O1058      C1061   1.265       .  A
V1059      V1060   2.084       .  T
C1061      C2018   1.479       .  S
C1062      C1784   1.478       .  S
C1063      C1823   1.468       .  S
C1064      C4037   1.472       .  S
O1065      V1073   1.928       .  S
O1065      C1075   1.270       .  A
O1066      V1073   1.915       .  S
O1066      C1076   1.267       .  A
O1067      V1073   1.889       .  S
O1067      C1077   1.262       .  A
O1068      V1073   1.898       .  S
O1068      C1078   1.263       .  A
O1069      V1074   1.917       .  S
O1069      C1078   1.268       .  A
O1070      V1074   1.917       .  S
O1070      C1077   1.268       .  A
O1071      V1074   1.896       .  S
O1071      C1076   1.262       .  A
O1072      V1074   1.892       .  S
O1072      C1075   1.263       .  A
V1073      V1074   2.085       .  T
C1075      C2345   1.484       .  S
C1076      C1766   1.473       .  S
C1077      C4739   1.474       .  S
C1078      C1787   1.478       .  S
O1079      V1087   1.907       .  S
O1079      C1089   1.266       .  A
O1080      V1087   1.909       .  S
O1080      C1090   1.266       .  A
O1081      V1087   1.897       .  S
O1081      C1091   1.262       .  A
O1082      V1087   1.901       .  S
O1082      C1092   1.264       .  A
O1083      V1088   1.903       .  S
O1083      C1092   1.265       .  A
O1084      V1088   1.912       .  S
O1084      C1091   1.266       .  A
O1085      V1088   1.897       .  S
O1085      C1090   1.263       .  A
O1086      V1088   1.901       .  S
O1086      C1089   1.265       .  A
V1087      V1088   2.083       .  T
C1089      C1751   1.475       .  S
C1090      C1838   1.470       .  S
C1091      C1769   1.470       .  S
C1092      C2900   1.470       .  S
O1093      V1101   1.916       .  S
O1093      C1103   1.268       .  A
O1094      V1101   1.913       .  S
O1094      C1104   1.267       .  A
O1095      V1101   1.885       .  S
O1095      C1105   1.260       .  A
O1096      V1101   1.881       .  S
O1096      C1106   1.259       .  A
O1097      V1102   1.910       .  S
O1097      C1106   1.267       .  A
O1098      V1102   1.912       .  S
O1098      C1105   1.267       .  A
O1099      V1102   1.889       .  S
O1099      C1104   1.261       .  A
O1100      V1102   1.889       .  S
O1100      C1103   1.261       .  A
V1101      V1102   2.087       .  T
C1103      C1748   1.473       .  S
C1104      C1730   1.467       .  S
C1105      C1715   1.467       .  S
C1106      C3260   1.463       .  S
O1107      V1115   1.917       .  S
O1107      C1117   1.269       .  A
O1108      V1115   1.909       .  S
O1108      C1118   1.267       .  A
O1109      V1115   1.899       .  S
O1109      C1119   1.263       .  A
O1110      V1115   1.899       .  S
O1110      C1120   1.262       .  A
O1111      V1116   1.914       .  S
O1111      C1120   1.267       .  A
O1112      V1116   1.903       .  S
O1112      C1119   1.266       .  A
O1113      V1116   1.895       .  S
O1113      C1118   1.261       .  A
O1114      V1116   1.902       .  S
O1114      C1117   1.265       .  A
V1115      V1116   2.084       .  T
C1117      C2165   1.483       .  S
C1118      C1712   1.468       .  S
C1119      C3983   1.469       .  S
C1120      C1697   1.472       .  S
O1121      V1129   1.926       .  S
O1121      C1131   1.270       .  A
O1122      V1129   1.917       .  S
O1122      C1132   1.267       .  A
O1123      V1129   1.900       .  S
O1123      C1133   1.264       .  A
O1124      V1129   1.897       .  S
O1124      C1134   1.263       .  A
O1125      V1130   1.910       .  S
O1125      C1134   1.267       .  A
O1126      V1130   1.912       .  S
O1126      C1133   1.267       .  A
O1127      V1130   1.899       .  S
O1127      C1132   1.263       .  A
O1128      V1130   1.897       .  S
O1128      C1131   1.263       .  A
V1129      V1130   2.083       .  T
C1131      C2075   1.485       .  S
C1132      C1676   1.476       .  S
C1133      C1658   1.477       .  S
C1134      C2813   1.473       .  S
O1135      V1143   1.914       .  S
O1135      C1145   1.268       .  A
O1136      V1143   1.911       .  S
O1136      C1146   1.267       .  A
O1137      V1143   1.898       .  S
O1137      C1147   1.263       .  A
O1138      V1143   1.893       .  S
O1138      C1148   1.262       .  A
O1139      V1144   1.908       .  S
O1139      C1148   1.266       .  A
O1140      V1144   1.898       .  S
O1140      C1147   1.264       .  A
O1141      V1144   1.904       .  S
O1141      C1146   1.264       .  A
O1142      V1144   1.909       .  S
O1142      C1145   1.266       .  A
V1143      V1144   2.083       .  T
C1145      C1643   1.485       .  S
C1146      C1661   1.477       .  S
C1147      C3494   1.464       .  S
C1148      C1733   1.465       .  S
O1149      V1157   1.917       .  S
O1149      C1159   1.269       .  A
O1150      V1157   1.914       .  S
O1150      C1160   1.267       .  A
O1151      V1157   1.889       .  S
O1151      C1161   1.262       .  A
O1152      V1157   1.888       .  S
O1152      C1162   1.261       .  A
O1153      V1158   1.909       .  S
O1153      C1162   1.266       .  A
O1154      V1158   1.913       .  S
O1154      C1161   1.266       .  A
O1155      V1158   1.899       .  S
O1155      C1160   1.264       .  A
O1156      V1158   1.899       .  S
O1156      C1159   1.263       .  A
V1157      V1158   2.087       .  T
C1159      C1604   1.481       .  S
C1160      C1694   1.478       .  S
C1161      C1625   1.470       .  S
C1162      C4685   1.468       .  S
O1163      V1171   1.905       .  S
O1163      C1173   1.265       .  A
O1164      V1171   1.903       .  S
O1164      C1174   1.266       .  A
O1165      V1171   1.892       .  S
O1165      C1175   1.262       .  A
O1166      V1171   1.892       .  S
O1166      C1176   1.261       .  A
O1167      V1172   1.918       .  S
O1167      C1176   1.268       .  A
O1168      V1172   1.904       .  S
O1168      C1175   1.265       .  A
O1169      V1172   1.901       .  S
O1169      C1174   1.263       .  A
O1170      V1172   1.904       .  S
O1170      C1173   1.266       .  A
V1171      V1172   2.084       .  T
C1173      C1805   1.475       .  S
C1174      C1622   1.468       .  S
C1175      C4271   1.465       .  S
C1176      C1679   1.473       .  S
O1177      V1185   1.913       .  S
O1177      C1187   1.267       .  A
O1178      V1185   1.906       .  S
O1178      C1188   1.265       .  A
O1179      V1185   1.895       .  S
O1179      C1189   1.263       .  A
O1180      V1185   1.901       .  S
O1180      C1190   1.264       .  A
O1181      V1186   1.900       .  S
O1181      C1190   1.264       .  A
O1182      V1186   1.911       .  S
O1182      C1189   1.266       .  A
O1183      V1186   1.897       .  S
O1183      C1188   1.262       .  A
O1184      V1186   1.895       .  S
O1184      C1187   1.263       .  A
V1185      V1186   2.088       .  T
C1187      C1895   1.475       .  S
C1188      C1589   1.466       .  S
C1189      C1568   1.473       .  S
C1190      C3911   1.469       .  S
O1191      V1199   1.921       .  S
O1191      C1201   1.269       .  A
O1192      V1199   1.913       .  S
O1192      C1202   1.268       .  A
O1193      V1199   1.888       .  S
O1193      C1203   1.260       .  A
O1194      V1199   1.888       .  S
O1194      C1204   1.261       .  A
O1195      V1200   1.918       .  S
O1195      C1204   1.268       .  A
O1196      V1200   1.907       .  S
O1196      C1203   1.266       .  A
O1197      V1200   1.903       .  S
O1197      C1202   1.263       .  A
O1198      V1200   1.898       .  S
O1198      C1201   1.263       .  A
V1199      V1200   2.087       .  T
C1201      C1640   1.484       .  S
C1202      C1553   1.478       .  S
C1203      C3713   1.466       .  S
C1204      C1586   1.473       .  S
O1205      V1213   1.904       .  S
O1205      C1215   1.266       .  A
O1206      V1213   1.904       .  S
O1206      C1216   1.265       .  A
O1207      V1213   1.898       .  S
O1207      C1217   1.263       .  A
O1208      V1213   1.894       .  S
O1208      C1218   1.261       .  A
O1209      V1214   1.918       .  S
O1209      C1218   1.268       .  A
O1210      V1214   1.911       .  S
O1210      C1217   1.267       .  A
O1211      V1214   1.901       .  S
O1211      C1216   1.263       .  A
O1212      V1214   1.907       .  S
O1212      C1215   1.266       .  A
V1213      V1214   2.084       .  T
C1215      C1514   1.477       .  S
C1216      C1571   1.468       .  S
C1217      C3191   1.475       .  S
C1218      C1532   1.472       .  S
O1219      V1227   1.922       .  S
O1219      C1229   1.270       .  A
O1220      V1227   1.918       .  S
O1220      C1230   1.268       .  A
O1221      V1227   1.894       .  S
O1221      C1231   1.262       .  A
O1222      V1227   1.890       .  S
O1222      C1232   1.261       .  A
O1223      V1228   1.916       .  S
O1223      C1232   1.268       .  A
O1224      V1228   1.915       .  S
O1224      C1231   1.268       .  A
O1225      V1228   1.894       .  S
O1225      C1230   1.262       .  A
O1226      V1228   1.894       .  S
O1226      C1229   1.262       .  A
V1227      V1228   2.084       .  T
C1229      C1607   1.480       .  S
C1230      C1535   1.476       .  S
C1231      C1496   1.474       .  S
C1232      C3062   1.474       .  S
O1233      V1241   1.900       .  S
O1233      C1243   1.264       .  A
O1234      V1241   1.903       .  S
O1234      C1244   1.265       .  A
O1235      V1241   1.900       .  S
O1235      C1245   1.264       .  A
O1236      V1241   1.894       .  S
O1236      C1246   1.262       .  A
O1237      V1242   1.911       .  S
O1237      C1246   1.266       .  A
O1238      V1242   1.905       .  S
O1238      C1245   1.265       .  A
O1239      V1242   1.901       .  S
O1239      C1244   1.264       .  A
O1240      V1242   1.902       .  S
O1240      C1243   1.265       .  A
V1241      V1242   2.086       .  T
C1243      C1967   1.470       .  S
C1244      C1499   1.470       .  S
C1245      C2777   1.472       .  S
C1246      C1478   1.466       .  S
O1247      V1255   1.915       .  S
O1247      C1257   1.268       .  A
O1248      V1255   1.908       .  S
O1248      C1258   1.265       .  A
O1249      V1255   1.898       .  S
O1249      C1259   1.264       .  A
O1250      V1255   1.896       .  S
O1250      C1260   1.263       .  A
O1251      V1256   1.912       .  S
O1251      C1260   1.267       .  A
O1252      V1256   1.914       .  S
O1252      C1259   1.266       .  A
O1253      V1256   1.902       .  S
O1253      C1258   1.264       .  A
O1254      V1256   1.902       .  S
O1254      C1257   1.265       .  A
V1255      V1256   2.085       .  T
C1257      C1460   1.483       .  S
C1258      C1481   1.474       .  S
C1259      C1550   1.476       .  S
C1260      C4325   1.475       .  S
O1261      V1269   1.915       .  S
O1261      C1271   1.268       .  A
O1262      V1269   1.904       .  S
O1262      C1272   1.265       .  A
O1263      V1269   1.889       .  S
O1263      C1273   1.261       .  A
O1264      V1269   1.894       .  S
O1264      C1274   1.263       .  A
O1265      V1270   1.919       .  S
O1265      C1274   1.268       .  A
O1266      V1270   1.913       .  S
O1266      C1273   1.267       .  A
O1267      V1270   1.891       .  S
O1267      C1272   1.261       .  A
O1268      V1270   1.894       .  S
O1268      C1271   1.262       .  A
V1269      V1270   2.087       .  T
C1271      C2489   1.477       .  S
C1272      C1442   1.463       .  S
C1273      C3026   1.470       .  S
C1274      C1427   1.480       .  S
O1275      V1283   1.919       .  S
O1275      C1285   1.268       .  A
O1276      V1283   1.912       .  S
O1276      C1286   1.267       .  A
O1277      V1283   1.889       .  S
O1277      C1287   1.261       .  A
O1278      V1283   1.893       .  S
O1278      C1288   1.262       .  A
O1279      V1284   1.917       .  S
O1279      C1288   1.268       .  A
O1280      V1284   1.919       .  S
O1280      C1287   1.269       .  A
O1281      V1284   1.891       .  S
O1281      C1286   1.261       .  A
O1282      V1284   1.889       .  S
O1282      C1285   1.262       .  A
V1283      V1284   2.086       .  T
C1285      C1517   1.476       .  S
C1286      C1409   1.467       .  S
C1287      C3551   1.476       .  S
C1288      C1388   1.476       .  S
O1289      V1297   1.910       .  S
O1289      C1299   1.267       .  A
O1290      V1297   1.912       .  S
O1290      C1300   1.267       .  A
O1291      V1297   1.888       .  S
O1291      C1301   1.261       .  A
O1292      V1297   1.894       .  S
O1292      C1302   1.262       .  A
O1293      V1298   1.895       .  S
O1293      C1302   1.263       .  A
O1294      V1298   1.903       .  S
O1294      C1301   1.264       .  A
O1295      V1298   1.900       .  S
O1295      C1300   1.263       .  A
O1296      V1298   1.902       .  S
O1296      C1299   1.265       .  A
V1297      V1298   2.082       .  T
C1299      C2201   1.477       .  S
C1300      C1391   1.474       .  S
C1301      C1445   1.457       .  S
C1302      C2741   1.457       .  S
O1303      V1311   1.913       .  S
O1303      C1313   1.268       .  A
O1304      V1311   1.912       .  S
O1304      C1314   1.267       .  A
O1305      V1311   1.897       .  S
O1305      C1315   1.261       .  A
O1306      V1311   1.900       .  S
O1306      C1316   1.263       .  A
O1307      V1312   1.905       .  S
O1307      C1316   1.266       .  A
O1308      V1312   1.917       .  S
O1308      C1315   1.268       .  A
O1309      V1312   1.903       .  S
O1309      C1314   1.263       .  A
O1310      V1312   1.908       .  S
O1310      C1313   1.265       .  A
V1311      V1312   2.085       .  T
C1313      C1463   1.483       .  S
C1314      C1424   1.476       .  S
C1315      C1370   1.473       .  S
C1316      C4523   1.473       .  S
O1317      V1325   1.901       .  S
O1317      C1327   1.265       .  A
O1318      V1325   1.905       .  S
O1318      C1328   1.266       .  A
O1319      V1325   1.890       .  S
O1319      C1329   1.261       .  A
O1320      V1325   1.895       .  S
O1320      C1330   1.263       .  A
O1321      V1326   1.901       .  S
O1321      C1330   1.264       .  A
O1322      V1326   1.908       .  S
O1322      C1329   1.266       .  A
O1323      V1326   1.896       .  S
O1323      C1328   1.262       .  A
O1324      V1326   1.901       .  S
O1324      C1327   1.264       .  A
V1325      V1326   2.086       .  T
C1327      C2453   1.470       .  S
C1328      C1352   1.467       .  S
C1329      C1406   1.464       .  S
C1330      C3767   1.467       .  S
O1331      V1339   1.920       .  S
O1331      C1341   1.269       .  A
O1332      V1339   1.916       .  S
O1332      C1342   1.268       .  A
O1333      V1339   1.884       .  S
O1333      C1343   1.260       .  A
O1334      V1339   1.888       .  S
O1334      C1344   1.261       .  A
O1335      V1340   1.912       .  S
O1335      C1344   1.267       .  A
O1336      V1340   1.908       .  S
O1336      C1343   1.267       .  A
O1337      V1340   1.899       .  S
O1337      C1342   1.263       .  A
O1338      V1340   1.896       .  S
O1338      C1341   1.263       .  A
V1339      V1340   2.086       .  T
C1341      C2093   1.480       .  S
C1342      C1373   1.480       .  S
C1343      C3926   1.464       .  S
C1344      C1355   1.468       .  S
C1345      C1350   1.385       .  A
C1345      C1346   1.406       .  A
C1345      N1351   1.344       .  A
C1346      C1347   1.404       .  A
C1346      H1357   1.082       .  S
C1347      C1356   1.384       .  A
C1347      C1348   1.384       .  A
C1348      C1349   1.402       .  A
C1348      N1354   1.339       .  A
C1349      C1350   1.399       .  A
C1349      H1358   1.082       .  S
C1350      C1353   1.378       .  A
N1351      C1352   1.356       .  A
N1351      H1361   1.045       .  S
C1352      C1353   1.393       .  A
C1353      H1359   1.082       .  S
N1354      C1355   1.354       .  A
N1354      H1362   1.045       .  S
C1355      C1356   1.396       .  A
C1356      H1360   1.082       .  S
C1363      C1368   1.384       .  A
C1363      C1364   1.408       .  A
C1363      N1369   1.345       .  A
C1364      C1365   1.406       .  A
C1364      H1375   1.082       .  S
C1365      C1374   1.385       .  A
C1365      C1366   1.384       .  A
C1366      C1367   1.407       .  A
C1366      N1372   1.345       .  A
C1367      C1368   1.406       .  A
C1367      H1376   1.082       .  S
C1368      C1371   1.385       .  A
N1369      C1370   1.357       .  A
N1369      H1379   1.045       .  S
C1370      C1371   1.396       .  A
C1371      H1377   1.082       .  S
N1372      C1373   1.357       .  A
N1372      H1380   1.045       .  S
C1373      C1374   1.397       .  A
C1374      H1378   1.082       .  S
C1381      C1386   1.384       .  A
C1381      C1382   1.405       .  A
C1381      N1387   1.342       .  A
C1382      C1383   1.402       .  A
C1382      H1393   1.082       .  S
C1383      C1392   1.381       .  A
C1383      C1384   1.384       .  A
C1384      C1385   1.408       .  A
C1384      N1390   1.345       .  A
C1385      C1386   1.406       .  A
C1385      H1394   1.082       .  S
C1386      C1389   1.385       .  A
N1387      C1388   1.356       .  A
N1387      H1397   1.045       .  S
C1388      C1389   1.397       .  A
C1389      H1395   1.082       .  S
N1390      C1391   1.357       .  A
N1390      H1398   1.045       .  S
C1391      C1392   1.395       .  A
C1392      H1396   1.082       .  S
C1399      C1404   1.385       .  A
C1399      C1400   1.402       .  A
C1399      N1405   1.342       .  A
C1400      C1401   1.401       .  A
C1400      H1411   1.082       .  S
C1401      C1410   1.375       .  A
C1401      C1402   1.385       .  A
C1402      C1403   1.404       .  A
C1402      N1408   1.346       .  A
C1403      C1404   1.404       .  A
C1403      H1412   1.082       .  S
C1404      C1407   1.379       .  A
N1405      C1406   1.354       .  A
N1405      H1415   1.045       .  S
C1406      C1407   1.394       .  A
C1407      H1413   1.082       .  S
N1408      C1409   1.355       .  A
N1408      H1416   1.045       .  S
C1409      C1410   1.394       .  A
C1410      H1414   1.083       .  S
C1417      C1422   1.385       .  A
C1417      C1418   1.402       .  A
C1417      N1423   1.345       .  A
C1418      C1419   1.402       .  A
C1418      H1429   1.082       .  S
C1419      C1428   1.375       .  A
C1419      C1420   1.384       .  A
C1420      C1421   1.410       .  A
C1420      N1426   1.351       .  A
C1421      C1422   1.410       .  A
C1421      H1430   1.082       .  S
C1422      C1425   1.384       .  A
N1423      C1424   1.354       .  A
N1423      H1433   1.045       .  S
C1424      C1425   1.399       .  A
C1425      H1431   1.082       .  S
N1426      C1427   1.359       .  A
N1426      H1434   1.044       .  S
C1427      C1428   1.395       .  A
C1428      H1432   1.083       .  S
C1435      C1440   1.385       .  A
C1435      C1436   1.402       .  A
C1435      N1441   1.343       .  A
C1436      C1437   1.402       .  A
C1436      H1447   1.082       .  S
C1437      C1446   1.376       .  A
C1437      C1438   1.385       .  A
C1438      C1439   1.401       .  A
C1438      N1444   1.341       .  A
C1439      C1440   1.400       .  A
C1439      H1448   1.082       .  S
C1440      C1443   1.375       .  A
N1441      C1442   1.354       .  A
N1441      H1451   1.045       .  S
C1442      C1443   1.393       .  A
C1443      H1449   1.082       .  S
N1444      C1445   1.353       .  A
N1444      H1452   1.045       .  S
C1445      C1446   1.393       .  A
C1446      H1450   1.083       .  S
C1453      C1458   1.384       .  A
C1453      C1454   1.405       .  A
C1453      N1459   1.344       .  A
C1454      C1455   1.404       .  A
C1454      H1465   1.082       .  S
C1455      C1464   1.382       .  A
C1455      C1456   1.383       .  A
C1456      C1457   1.411       .  A
C1456      N1462   1.349       .  A
C1457      C1458   1.409       .  A
C1457      H1466   1.082       .  S
C1458      C1461   1.387       .  A
N1459      C1460   1.357       .  A
N1459      H1469   1.045       .  S
C1460      C1461   1.400       .  A
C1461      H1467   1.082       .  S
N1462      C1463   1.360       .  A
N1462      H1470   1.045       .  S
C1463      C1464   1.396       .  A
C1464      H1468   1.082       .  S
C1471      C1476   1.384       .  A
C1471      C1472   1.407       .  A
C1471      N1477   1.345       .  A
C1472      C1473   1.406       .  A
C1472      H1483   1.082       .  S
C1473      C1482   1.383       .  A
C1473      C1474   1.384       .  A
C1474      C1475   1.403       .  A
C1474      N1480   1.343       .  A
C1475      C1476   1.402       .  A
C1475      H1484   1.082       .  S
C1476      C1479   1.378       .  A
N1477      C1478   1.356       .  A
N1477      H1487   1.045       .  S
C1478      C1479   1.393       .  A
C1479      H1485   1.082       .  S
N1480      C1481   1.355       .  A
N1480      H1488   1.045       .  S
C1481      C1482   1.397       .  A
C1482      H1486   1.082       .  S
C1489      C1494   1.385       .  A
C1489      C1490   1.405       .  A
C1489      N1495   1.347       .  A
C1490      C1491   1.405       .  A
C1490      H1501   1.082       .  S
C1491      C1500   1.380       .  A
C1491      C1492   1.385       .  A
C1492      C1493   1.403       .  A
C1492      N1498   1.344       .  A
C1493      C1494   1.403       .  A
C1493      H1502   1.082       .  S
C1494      C1497   1.377       .  A
N1495      C1496   1.356       .  A
N1495      H1505   1.044       .  S
C1496      C1497   1.396       .  A
C1497      H1503   1.083       .  S
N1498      C1499   1.355       .  A
N1498      H1506   1.045       .  S
C1499      C1500   1.395       .  A
C1500      H1504   1.082       .  S
C1507      C1512   1.385       .  A
C1507      C1508   1.402       .  A
C1507      N1513   1.344       .  A
C1508      C1509   1.401       .  A
C1508      H1519   1.082       .  S
C1509      C1518   1.374   1_545  A
C1509      C1510   1.384   1_545  A
C1510      C1511   1.408   1_565  A
C1510      N1516   1.350       .  A
C1511      C1512   1.409       .  A
C1511      H1520   1.082   1_545  S
C1512      C1515   1.383       .  A
N1513      C1514   1.355       .  A
N1513      H1523   1.045       .  S
C1514      C1515   1.399       .  A
C1515      H1521   1.082       .  S
N1516      C1517   1.358       .  A
N1516      H1524   1.044       .  S
C1517      C1518   1.395       .  A
C1518      H1522   1.083       .  S
C1525      C1530   1.384       .  A
C1525      C1526   1.403       .  A
C1525      N1531   1.345       .  A
C1526      C1527   1.402       .  A
C1526      H1537   1.082       .  S
C1527      C1536   1.375       .  A
C1527      C1528   1.384       .  A
C1528      C1529   1.408       .  A
C1528      N1534   1.350       .  A
C1529      C1530   1.409       .  A
C1529      H1538   1.082       .  S
C1530      C1533   1.383       .  A
N1531      C1532   1.355       .  A
N1531      H1541   1.045       .  S
C1532      C1533   1.398       .  A
C1533      H1539   1.083       .  S
N1534      C1535   1.358       .  A
N1534      H1542   1.045       .  S
C1535      C1536   1.394       .  A
C1536      H1540   1.082       .  S
C1543      C1548   1.384       .  A
C1543      C1544   1.402       .  A
C1543      N1549   1.341       .  A
C1544      C1545   1.400       .  A
C1544      H1555   1.082       .  S
C1545      C1554   1.379       .  A
C1545      C1546   1.384       .  A
C1546      C1547   1.412       .  A
C1546      N1552   1.348       .  A
C1547      C1548   1.410       .  A
C1547      H1556   1.082       .  S
C1548      C1551   1.389       .  A
N1549      C1550   1.354       .  A
N1549      H1559   1.045       .  S
C1550      C1551   1.399       .  A
C1551      H1557   1.082       .  S
N1552      C1553   1.360       .  A
N1552      H1560   1.045       .  S
C1553      C1554   1.393       .  A
C1554      H1558   1.082       .  S
C1561      C1566   1.384       .  A
C1561      C1562   1.408       .  A
C1561      N1567   1.348       .  A
C1562      C1563   1.408       .  A
C1562      H1573   1.082       .  S
C1563      C1572   1.382       .  A
C1563      C1564   1.385       .  A
C1564      C1565   1.400       .  A
C1564      N1570   1.342       .  A
C1565      C1566   1.400       .  A
C1565      H1574   1.082       .  S
C1566      C1569   1.374       .  A
N1567      C1568   1.358       .  A
N1567      H1577   1.044       .  S
C1568      C1569   1.393       .  A
C1569      H1575   1.083       .  S
N1570      C1571   1.353       .  A
N1570      H1578   1.045       .  S
C1571      C1572   1.397       .  A
C1572      H1576   1.082       .  S
C1579      C1584   1.385       .  A
C1579      C1580   1.406       .  A
C1579      N1585   1.348       .  A
C1580      C1581   1.406       .  A
C1580      H1591   1.082       .  S
C1581      C1590   1.379       .  A
C1581      C1582   1.385       .  A
C1582      C1583   1.401       .  A
C1582      N1588   1.344       .  A
C1583      C1584   1.402       .  A
C1583      H1592   1.082       .  S
C1584      C1587   1.374       .  A
N1585      C1586   1.356       .  A
N1585      H1595   1.044       .  S
C1586      C1587   1.395       .  A
C1587      H1593   1.083       .  S
N1588      C1589   1.354       .  A
N1588      H1596   1.045       .  S
C1589      C1590   1.395       .  A
C1590      H1594   1.082       .  S
C1597      C1602   1.384       .  A
C1597      C1598   1.408   1_455  A
C1597      N1603   1.345       .  A
C1598      C1599   1.405       .  A
C1598      H1609   1.082       .  S
C1599      C1608   1.386       .  A
C1599      C1600   1.383       .  A
C1600      C1601   1.408   1_655  A
C1600      N1606   1.344       .  A
C1601      C1602   1.405       .  A
C1601      H1610   1.082       .  S
C1602      C1605   1.385       .  A
N1603      C1604   1.358       .  A
N1603      H1613   1.045       .  S
C1604      C1605   1.398       .  A
C1605      H1611   1.082       .  S
N1606      C1607   1.358       .  A
N1606      H1614   1.045       .  S
C1607      C1608   1.397       .  A
C1608      H1612   1.082       .  S
C1615      C1620   1.385       .  A
C1615      C1616   1.398       .  A
C1615      N1621   1.341       .  A
C1616      C1617   1.398       .  A
C1616      H1627   1.082       .  S
C1617      C1626   1.370       .  A
C1617      C1618   1.385       .  A
C1618      C1619   1.408       .  A
C1618      N1624   1.349       .  A
C1619      C1620   1.409       .  A
C1619      H1628   1.082       .  S
C1620      C1623   1.383       .  A
N1621      C1622   1.352       .  A
N1621      H1631   1.045       .  S
C1622      C1623   1.398       .  A
C1623      H1629   1.082       .  S
N1624      C1625   1.358       .  A
N1624      H1632   1.044       .  S
C1625      C1626   1.392       .  A
C1626      H1630   1.083       .  S
C1633      C1638   1.383       .  A
C1633      C1634   1.407       .  A
C1633      N1639   1.344       .  A
C1634      C1635   1.405       .  A
C1634      H1645   1.082       .  S
C1635      C1644   1.384       .  A
C1635      C1636   1.383       .  A
C1636      C1637   1.411       .  A
C1636      N1642   1.348       .  A
C1637      C1638   1.409       .  A
C1637      H1646   1.082       .  S
C1638      C1641   1.389       .  A
N1639      C1640   1.357       .  A
N1639      H1649   1.045       .  S
C1640      C1641   1.400       .  A
C1641      H1647   1.082       .  S
N1642      C1643   1.359       .  A
N1642      H1650   1.045       .  S
C1643      C1644   1.397       .  A
C1644      H1648   1.082       .  S
C1651      C1656   1.384       .  A
C1651      C1652   1.404       .  A
C1651      N1657   1.343       .  A
C1652      C1653   1.403       .  A
C1652      H1663   1.082       .  S
C1653      C1662   1.381       .  A
C1653      C1654   1.384       .  A
C1654      C1655   1.409       .  A
C1654      N1660   1.347       .  A
C1655      C1656   1.407       .  A
C1655      H1664   1.082       .  S
C1656      C1659   1.385       .  A
N1657      C1658   1.356       .  A
N1657      H1667   1.045       .  S
C1658      C1659   1.398       .  A
C1659      H1665   1.082       .  S
N1660      C1661   1.358       .  A
N1660      H1668   1.045       .  S
C1661      C1662   1.395       .  A
C1662      H1666   1.082       .  S
C1669      C1674   1.384       .  A
C1669      C1670   1.410       .  A
C1669      N1675   1.349       .  A
C1670      C1671   1.409       .  A
C1670      H1681   1.082       .  S
C1671      C1680   1.386       .  A
C1671      C1672   1.384       .  A
C1672      C1673   1.403       .  A
C1672      N1678   1.343       .  A
C1673      C1674   1.402       .  A
C1673      H1682   1.082       .  S
C1674      C1677   1.378       .  A
N1675      C1676   1.358       .  A
N1675      H1685   1.044       .  S
C1676      C1677   1.394       .  A
C1677      H1683   1.082       .  S
N1678      C1679   1.355       .  A
N1678      H1686   1.045       .  S
C1679      C1680   1.398       .  A
C1680      H1684   1.082       .  S
C1687      C1692   1.384       .  A
C1687      C1688   1.405       .  A
C1687      N1693   1.343       .  A
C1688      C1689   1.403       .  A
C1688      H1699   1.082       .  S
C1689      C1698   1.383       .  A
C1689      C1690   1.384       .  A
C1690      C1691   1.409       .  A
C1690      N1696   1.345       .  A
C1691      C1692   1.407       .  A
C1691      H1700   1.082       .  S
C1692      C1695   1.386       .  A
N1693      C1694   1.356       .  A
N1693      H1703   1.045       .  S
C1694      C1695   1.398       .  A
C1695      H1701   1.082       .  S
N1696      C1697   1.357       .  A
N1696      H1704   1.045       .  S
C1697      C1698   1.394       .  A
C1698      H1702   1.082       .  S
C1705      C1710   1.384       .  A
C1705      C1706   1.406       .  A
C1705      N1711   1.343       .  A
C1706      C1707   1.404       .  A
C1706      H1717   1.082       .  S
C1707      C1716   1.384       .  A
C1707      C1708   1.384       .  A
C1708      C1709   1.401       .  A
C1708      N1714   1.338       .  A
C1709      C1710   1.399       .  A
C1709      H1718   1.082       .  S
C1710      C1713   1.378       .  A
N1711      C1712   1.357       .  A
N1711      H1721   1.045       .  S
C1712      C1713   1.392       .  A
C1713      H1719   1.082       .  S
N1714      C1715   1.354       .  A
N1714      H1722   1.045       .  S
C1715      C1716   1.395       .  A
C1716      H1720   1.082       .  S
C1723      C1728   1.385       .  A
C1723      C1724   1.405       .  A
C1723      N1729   1.347       .  A
C1724      C1725   1.405       .  A
C1724      H1735   1.082       .  S
C1725      C1734   1.379       .  A
C1725      C1726   1.385       .  A
C1726      C1727   1.401       .  A
C1726      N1732   1.343       .  A
C1727      C1728   1.401       .  A
C1727      H1736   1.082       .  S
C1728      C1731   1.374       .  A
N1729      C1730   1.356       .  A
N1729      H1739   1.045       .  S
C1730      C1731   1.393       .  A
C1731      H1737   1.083       .  S
N1732      C1733   1.354       .  A
N1732      H1740   1.045       .  S
C1733      C1734   1.395       .  A
C1734      H1738   1.083       .  S
C1741      C1746   1.385       .  A
C1741      C1742   1.405       .  A
C1741      N1747   1.348       .  A
C1742      C1743   1.406       .  A
C1742      H1753   1.082       .  S
C1743      C1752   1.379   1_554  A
C1743      C1744   1.385   1_554  A
C1744      C1745   1.403   1_556  A
C1744      N1750   1.345       .  A
C1745      C1746   1.403       .  A
C1745      H1754   1.082   1_554  S
C1746      C1749   1.376       .  A
N1747      C1748   1.356       .  A
N1747      H1757   1.044       .  S
C1748      C1749   1.396       .  A
C1749      H1755   1.083       .  S
N1750      C1751   1.356       .  A
N1750      H1758   1.045       .  S
C1751      C1752   1.396       .  A
C1752      H1756   1.082       .  S
C1759      C1764   1.384       .  A
C1759      C1760   1.407       .  A
C1759      N1765   1.348       .  A
C1760      C1761   1.407       .  A
C1760      H1771   1.082       .  S
C1761      C1770   1.382       .  A
C1761      C1762   1.385       .  A
C1762      C1763   1.403       .  A
C1762      N1768   1.344       .  A
C1763      C1764   1.402       .  A
C1763      H1772   1.082       .  S
C1764      C1767   1.377       .  A
N1765      C1766   1.357       .  A
N1765      H1775   1.045       .  S
C1766      C1767   1.394       .  A
C1767      H1773   1.082       .  S
N1768      C1769   1.354       .  A
N1768      H1776   1.045       .  S
C1769      C1770   1.396       .  A
C1770      H1774   1.082       .  S
C1777      C1782   1.384       .  A
C1777      C1778   1.406       .  A
C1777      N1783   1.347       .  A
C1778      C1779   1.406       .  A
C1778      H1789   1.082       .  S
C1779      C1788   1.380       .  A
C1779      C1780   1.384       .  A
C1780      C1781   1.406       .  A
C1780      N1786   1.349       .  A
C1781      C1782   1.406       .  A
C1781      H1790   1.082       .  S
C1782      C1785   1.381       .  A
N1783      C1784   1.357       .  A
N1783      H1793   1.045       .  S
C1784      C1785   1.397       .  A
C1785      H1791   1.082       .  S
N1786      C1787   1.356       .  A
N1786      H1794   1.044       .  S
C1787      C1788   1.397       .  A
C1788      H1792   1.082       .  S
C1795      C1800   1.384       .  A
C1795      C1796   1.407       .  A
C1795      N1801   1.350       .  A
C1796      C1797   1.408       .  A
C1796      H1807   1.082       .  S
C1797      C1806   1.381       .  A
C1797      C1798   1.385       .  A
C1798      C1799   1.403       .  A
C1798      N1804   1.346       .  A
C1799      C1800   1.403       .  A
C1799      H1808   1.082       .  S
C1800      C1803   1.375       .  A
N1801      C1802   1.357       .  A
N1801      H1811   1.044       .  S
C1802      C1803   1.396       .  A
C1803      H1809   1.083       .  S
N1804      C1805   1.355       .  A
N1804      H1812   1.045       .  S
C1805      C1806   1.397       .  A
C1806      H1810   1.082       .  S
C1813      C1818   1.385       .  A
C1813      C1814   1.406       .  A
C1813      N1819   1.347       .  A
C1814      C1815   1.406       .  A
C1814      H1825   1.082       .  S
C1815      C1824   1.382       .  A
C1815      C1816   1.385       .  A
C1816      C1817   1.402       .  A
C1816      N1822   1.342       .  A
C1817      C1818   1.401       .  A
C1817      H1826   1.082       .  S
C1818      C1821   1.376       .  A
N1819      C1820   1.356       .  A
N1819      H1829   1.045       .  S
C1820      C1821   1.392       .  A
C1821      H1827   1.082       .  S
N1822      C1823   1.355       .  A
N1822      H1830   1.045       .  S
C1823      C1824   1.396       .  A
C1824      H1828   1.082       .  S
C1831      C1836   1.385       .  A
C1831      C1832   1.402       .  A
C1831      N1837   1.344       .  A
C1832      C1833   1.402       .  A
C1832      H1843   1.082       .  S
C1833      C1842   1.374       .  A
C1833      C1834   1.385       .  A
C1834      C1835   1.406       .  A
C1834      N1840   1.349       .  A
C1835      C1836   1.406       .  A
C1835      H1844   1.082       .  S
C1836      C1839   1.379       .  A
N1837      C1838   1.354       .  A
N1837      H1847   1.045       .  S
C1838      C1839   1.396       .  A
C1839      H1845   1.082       .  S
N1840      C1841   1.356       .  A
N1840      H1848   1.044       .  S
C1841      C1842   1.395       .  A
C1842      H1846   1.083       .  S
C1849      C1854   1.384       .  A
C1849      C1850   1.408       .  A
C1849      N1855   1.348       .  A
C1850      C1851   1.408       .  A
C1850      H1861   1.082       .  S
C1851      C1860   1.384       .  A
C1851      C1852   1.384       .  A
C1852      C1853   1.403       .  A
C1852      N1858   1.343       .  A
C1853      C1854   1.402       .  A
C1853      H1862   1.082       .  S
C1854      C1857   1.377       .  A
N1855      C1856   1.357       .  A
N1855      H1865   1.045       .  S
C1856      C1857   1.394       .  A
C1857      H1863   1.082       .  S
N1858      C1859   1.355       .  A
N1858      H1866   1.045       .  S
C1859      C1860   1.397       .  A
C1860      H1864   1.082       .  S
C1867      C1872   1.384       .  A
C1867      C1868   1.409       .  A
C1867      N1873   1.346       .  A
C1868      C1869   1.407       .  A
C1868      H1879   1.082       .  S
C1869      C1878   1.386       .  A
C1869      C1870   1.384       .  A
C1870      C1871   1.403       .  A
C1870      N1876   1.341       .  A
C1871      C1872   1.401       .  A
C1871      H1880   1.082       .  S
C1872      C1875   1.379       .  A
N1873      C1874   1.358       .  A
N1873      H1883   1.045       .  S
C1874      C1875   1.393       .  A
C1875      H1881   1.082       .  S
N1876      C1877   1.355       .  A
N1876      H1884   1.045       .  S
C1877      C1878   1.397       .  A
C1878      H1882   1.082       .  S
C1885      C1890   1.384   1_556  A
C1885      C1886   1.402   1_556  A
C1885      N1891   1.344       .  A
C1886      C1887   1.402       .  A
C1886      H1897   1.082   1_554  S
C1887      C1896   1.375       .  A
C1887      C1888   1.384       .  A
C1888      C1889   1.407       .  A
C1888      N1894   1.348       .  A
C1889      C1890   1.407       .  A
C1889      H1898   1.082       .  S
C1890      C1893   1.382   1_554  A
N1891      C1892   1.355       .  A
N1891      H1901   1.045       .  S
C1892      C1893   1.398       .  A
C1893      H1899   1.082       .  S
N1894      C1895   1.357       .  A
N1894      H1902   1.044       .  S
C1895      C1896   1.395       .  A
C1896      H1900   1.082       .  S
C1903      C1908   1.384       .  A
C1903      C1904   1.407       .  A
C1903      N1909   1.348       .  A
C1904      C1905   1.407   1_655  A
C1904      H1915   1.082       .  S
C1905      C1914   1.380       .  A
C1905      C1906   1.385       .  A
C1906      C1907   1.404       .  A
C1906      N1912   1.347       .  A
C1907      C1908   1.404   1_455  A
C1907      H1916   1.082       .  S
C1908      C1911   1.378       .  A
N1909      C1910   1.357       .  A
N1909      H1919   1.045       .  S
C1910      C1911   1.395       .  A
C1911      H1917   1.082       .  S
N1912      C1913   1.356       .  A
N1912      H1920   1.045       .  S
C1913      C1914   1.398       .  A
C1914      H1918   1.082       .  S
C1921      C1926   1.385       .  A
C1921      C1922   1.407       .  A
C1921      N1927   1.343       .  A
C1922      C1923   1.404       .  A
C1922      H1933   1.082       .  S
C1923      C1932   1.386       .  A
C1923      C1924   1.385       .  A
C1924      C1925   1.400       .  A
C1924      N1930   1.336       .  A
C1925      C1926   1.397       .  A
C1925      H1934   1.083       .  S
C1926      C1929   1.376       .  A
N1927      C1928   1.356       .  A
N1927      H1937   1.045       .  S
C1928      C1929   1.392       .  A
C1929      H1935   1.083       .  S
N1930      C1931   1.353       .  A
N1930      H1938   1.045       .  S
C1931      C1932   1.396       .  A
C1932      H1936   1.082       .  S
C1939      C1944   1.385       .  A
C1939      C1940   1.401       .  A
C1939      N1945   1.344       .  A
C1940      C1941   1.401       .  A
C1940      H1951   1.082       .  S
C1941      C1950   1.373       .  A
C1941      C1942   1.385       .  A
C1942      C1943   1.406       .  A
C1942      N1948   1.348       .  A
C1943      C1944   1.407       .  A
C1943      H1952   1.082       .  S
C1944      C1947   1.381       .  A
N1945      C1946   1.353       .  A
N1945      H1955   1.045       .  S
C1946      C1947   1.396       .  A
C1947      H1953   1.082       .  S
N1948      C1949   1.356       .  A
N1948      H1956   1.045       .  S
C1949      C1950   1.393       .  A
C1950      H1954   1.083       .  S
C1957      C1962   1.385       .  A
C1957      C1958   1.404       .  A
C1957      N1963   1.344       .  A
C1958      C1959   1.404       .  A
C1958      H1969   1.082       .  S
C1959      C1968   1.379       .  A
C1959      C1960   1.385       .  A
C1960      C1961   1.402       .  A
C1960      N1966   1.343       .  A
C1961      C1962   1.401       .  A
C1961      H1970   1.082       .  S
C1962      C1965   1.375       .  A
N1963      C1964   1.355       .  A
N1963      H1973   1.045       .  S
C1964      C1965   1.394       .  A
C1965      H1971   1.083       .  S
N1966      C1967   1.355       .  A
N1966      H1974   1.045       .  S
C1967      C1968   1.396       .  A
C1968      H1972   1.082       .  S
C1975      C1980   1.384       .  A
C1975      C1976   1.402       .  A
C1975      N1981   1.339       .  A
C1976      C1977   1.400       .  A
C1976      H1987   1.083       .  S
C1977      C1986   1.377       .  A
C1977      C1978   1.384       .  A
C1978      C1979   1.410       .  A
C1978      N1984   1.347       .  A
C1979      C1980   1.408       .  A
C1979      H1988   1.082       .  S
C1980      C1983   1.389       .  A
N1981      C1982   1.354       .  A
N1981      H1991   1.045       .  S
C1982      C1983   1.397       .  A
C1983      H1989   1.082       .  S
N1984      C1985   1.358       .  A
N1984      H1992   1.045       .  S
C1985      C1986   1.393       .  A
C1986      H1990   1.083       .  S
C1993      C1998   1.384       .  A
C1993      C1994   1.409       .  A
C1993      N1999   1.347       .  A
C1994      C1995   1.408       .  A
C1994      H2005   1.082       .  S
C1995      C2004   1.386       .  A
C1995      C1996   1.385       .  A
C1996      C1997   1.399       .  A
C1996      N2002   1.338       .  A
C1997      C1998   1.397       .  A
C1997      H2006   1.082       .  S
C1998      C2001   1.374       .  A
N1999      C2000   1.358       .  A
N1999      H2009   1.045       .  S
C2000      C2001   1.391       .  A
C2001      H2007   1.082       .  S
N2002      C2003   1.353       .  A
N2002      H2010   1.045       .  S
C2003      C2004   1.397       .  A
C2004      H2008   1.082       .  S
C2011      C2016   1.384       .  A
C2011      C2012   1.406       .  A
C2011      N2017   1.345       .  A
C2012      C2013   1.405       .  A
C2012      H2023   1.082       .  S
C2013      C2022   1.383       .  A
C2013      C2014   1.384       .  A
C2014      C2015   1.406       .  A
C2014      N2020   1.345       .  A
C2015      C2016   1.405       .  A
C2015      H2024   1.082       .  S
C2016      C2019   1.383       .  A
N2017      C2018   1.357       .  A
N2017      H2027   1.045       .  S
C2018      C2019   1.397       .  A
C2019      H2025   1.082       .  S
N2020      C2021   1.357       .  A
N2020      H2028   1.045       .  S
C2021      C2022   1.397       .  A
C2022      H2026   1.082       .  S
C2029      C2034   1.385       .  A
C2029      C2030   1.407       .  A
C2029      N2035   1.350       .  A
C2030      C2031   1.408       .  A
C2030      H2041   1.082       .  S
C2031      C2040   1.381       .  A
C2031      C2032   1.386       .  A
C2032      C2033   1.397       .  A
C2032      N2038   1.341       .  A
C2033      C2034   1.397       .  A
C2033      H2042   1.083       .  S
C2034      C2037   1.368       .  A
N2035      C2036   1.357       .  A
N2035      H2045   1.044       .  S
C2036      C2037   1.391       .  A
C2037      H2043   1.083       .  S
N2038      C2039   1.351       .  A
N2038      H2046   1.045       .  S
C2039      C2040   1.397       .  A
C2040      H2044   1.082       .  S
C2047      C2052   1.385       .  A
C2047      C2048   1.402       .  A
C2047      N2053   1.345       .  A
C2048      C2049   1.402       .  A
C2048      H2059   1.082       .  S
C2049      C2058   1.374       .  A
C2049      C2050   1.385       .  A
C2050      C2051   1.405       .  A
C2050      N2056   1.348       .  A
C2051      C2052   1.406       .  A
C2051      H2060   1.082       .  S
C2052      C2055   1.379       .  A
N2053      C2054   1.355       .  A
N2053      H2063   1.045       .  S
C2054      C2055   1.396       .  A
C2055      H2061   1.082       .  S
N2056      C2057   1.356       .  A
N2056      H2064   1.044       .  S
C2057      C2058   1.394       .  A
C2058      H2062   1.083       .  S
C2065      C2070   1.383       .  A
C2065      C2066   1.413       .  A
C2065      N2071   1.351       .  A
C2066      C2067   1.412       .  A
C2066      H2077   1.082       .  S
C2067      C2076   1.391       .  A
C2067      C2068   1.383       .  A
C2068      C2069   1.404       .  A
C2068      N2074   1.343       .  A
C2069      C2070   1.402       .  A
C2069      H2078   1.082       .  S
C2070      C2073   1.379   1_545  A
N2071      C2072   1.361   1_545  A
N2071      H2081   1.044       .  S
C2072      C2073   1.396       .  A
C2073      H2079   1.082       .  S
N2074      C2075   1.356       .  A
N2074      H2082   1.045       .  S
C2075      C2076   1.401       .  A
C2076      H2080   1.082       .  S
C2083      C2088   1.384       .  A
C2083      C2084   1.404       .  A
C2083      N2089   1.348       .  A
C2084      C2085   1.405       .  A
C2084      H2095   1.082       .  S
C2085      C2094   1.377       .  A
C2085      C2086   1.384       .  A
C2086      C2087   1.407       .  A
C2086      N2092   1.350       .  A
C2087      C2088   1.407       .  A
C2087      H2096   1.082       .  S
C2088      C2091   1.379       .  A
N2089      C2090   1.356       .  A
N2089      H2099   1.045       .  S
C2090      C2091   1.398       .  A
C2091      H2097   1.082       .  S
N2092      C2093   1.357       .  A
N2092      H2100   1.044       .  S
C2093      C2094   1.397       .  A
C2094      H2098   1.082       .  S
C2101      C2106   1.384       .  A
C2101      C2102   1.406       .  A
C2101      N2107   1.347       .  A
C2102      C2103   1.406       .  A
C2102      H2113   1.082       .  S
C2103      C2112   1.382       .  A
C2103      C2104   1.385       .  A
C2104      C2105   1.402       .  A
C2104      N2110   1.343       .  A
C2105      C2106   1.402       .  A
C2105      H2114   1.082       .  S
C2106      C2109   1.376       .  A
N2107      C2108   1.356       .  A
N2107      H2117   1.045       .  S
C2108      C2109   1.394       .  A
C2109      H2115   1.082       .  S
N2110      C2111   1.354       .  A
N2110      H2118   1.045       .  S
C2111      C2112   1.396       .  A
C2112      H2116   1.082       .  S
C2119      C2124   1.384       .  A
C2119      C2120   1.406       .  A
C2119      N2125   1.342       .  A
C2120      C2121   1.403       .  A
C2120      H2131   1.082       .  S
C2121      C2130   1.385       .  A
C2121      C2122   1.384       .  A
C2122      C2123   1.404       .  A
C2122      N2128   1.340       .  A
C2123      C2124   1.401       .  A
C2123      H2132   1.082       .  S
C2124      C2127   1.381       .  A
N2125      C2126   1.356       .  A
N2125      H2135   1.045       .  S
C2126      C2127   1.394       .  A
C2127      H2133   1.082       .  S
N2128      C2129   1.356       .  A
N2128      H2136   1.045       .  S
C2129      C2130   1.395       .  A
C2130      H2134   1.082       .  S
C2137      C2142   1.384       .  A
C2137      C2138   1.404       .  A
C2137      N2143   1.343       .  A
C2138      C2139   1.402       .  A
C2138      H2149   1.082       .  S
C2139      C2148   1.380       .  A
C2139      C2140   1.384       .  A
C2140      C2141   1.410       .  A
C2140      N2146   1.348       .  A
C2141      C2142   1.409       .  A
C2141      H2150   1.082       .  S
C2142      C2145   1.388       .  A
N2143      C2144   1.356       .  A
N2143      H2153   1.045       .  S
C2144      C2145   1.399       .  A
C2145      H2151   1.082       .  S
N2146      C2147   1.358       .  A
N2146      H2154   1.045       .  S
C2147      C2148   1.394       .  A
C2148      H2152   1.082       .  S
C2155      C2160   1.384       .  A
C2155      C2156   1.408       .  A
C2155      N2161   1.351       .  A
C2156      C2157   1.410       .  A
C2156      H2167   1.082       .  S
C2157      C2166   1.382       .  A
C2157      C2158   1.384       .  A
C2158      C2159   1.406       .  A
C2158      N2164   1.349       .  A
C2159      C2160   1.407       .  A
C2159      H2168   1.082       .  S
C2160      C2163   1.379       .  A
N2161      C2162   1.358       .  A
N2161      H2171   1.044       .  S
C2162      C2163   1.398       .  A
C2163      H2169   1.082       .  S
N2164      C2165   1.357       .  A
N2164      H2172   1.045       .  S
C2165      C2166   1.399       .  A
C2166      H2170   1.082       .  S
C2173      C2178   1.384       .  A
C2173      C2174   1.407       .  A
C2173      N2179   1.349       .  A
C2174      C2175   1.407       .  A
C2174      H2185   1.082       .  S
C2175      C2184   1.380       .  A
C2175      C2176   1.385       .  A
C2176      C2177   1.401       .  A
C2176      N2182   1.344       .  A
C2177      C2178   1.401       .  A
C2177      H2186   1.082       .  S
C2178      C2181   1.373       .  A
N2179      C2180   1.357       .  A
N2179      H2189   1.045       .  S
C2180      C2181   1.393       .  A
C2181      H2187   1.082       .  S
N2182      C2183   1.353       .  A
N2182      H2190   1.045       .  S
C2183      C2184   1.395       .  A
C2184      H2188   1.083       .  S
C2191      C2196   1.384       .  A
C2191      C2192   1.406       .  A
C2191      N2197   1.347       .  A
C2192      C2193   1.406   1_455  A
C2192      H2203   1.082       .  S
C2193      C2202   1.381       .  A
C2193      C2194   1.384       .  A
C2194      C2195   1.405       .  A
C2194      N2200   1.346       .  A
C2195      C2196   1.404   1_655  A
C2195      H2204   1.082       .  S
C2196      C2199   1.379       .  A
N2197      C2198   1.357       .  A
N2197      H2207   1.045       .  S
C2198      C2199   1.396       .  A
C2199      H2205   1.082       .  S
N2200      C2201   1.356       .  A
N2200      H2208   1.045       .  S
C2201      C2202   1.397       .  A
C2202      H2206   1.082       .  S
C2209      C2214   1.384       .  A
C2209      C2210   1.410       .  A
C2209      N2215   1.347       .  A
C2210      C2211   1.408       .  A
C2210      H2221   1.082       .  S
C2211      C2220   1.389       .  A
C2211      C2212   1.385       .  A
C2212      C2213   1.399       .  A
C2212      N2218   1.337       .  A
C2213      C2214   1.397       .  A
C2213      H2222   1.083       .  S
C2214      C2217   1.376       .  A
N2215      C2216   1.358       .  A
N2215      H2225   1.045       .  S
C2216      C2217   1.391       .  A
C2217      H2223   1.082       .  S
N2218      C2219   1.352       .  A
N2218      H2226   1.045       .  S
C2219      C2220   1.398       .  A
C2220      H2224   1.082       .  S
C2227      C2232   1.384       .  A
C2227      C2228   1.408       .  A
C2227      N2233   1.346       .  A
C2228      C2229   1.406       .  A
C2228      H2239   1.082       .  S
C2229      C2238   1.385       .  A
C2229      C2230   1.384       .  A
C2230      C2231   1.403       .  A
C2230      N2236   1.341       .  A
C2231      C2232   1.401       .  A
C2231      H2240   1.082       .  S
C2232      C2235   1.378       .  A
N2233      C2234   1.357       .  A
N2233      H2243   1.045       .  S
C2234      C2235   1.393       .  A
C2235      H2241   1.082       .  S
N2236      C2237   1.355       .  A
N2236      H2244   1.045       .  S
C2237      C2238   1.396       .  A
C2238      H2242   1.082       .  S
C2245      C2250   1.384   1_565  A
C2245      C2246   1.411   1_565  A
C2245      N2251   1.353       .  A
C2246      C2247   1.412       .  A
C2246      H2257   1.082   1_545  S
C2247      C2256   1.385       .  A
C2247      C2248   1.384       .  A
C2248      C2249   1.402       .  A
C2248      N2254   1.346       .  A
C2249      C2250   1.403       .  A
C2249      H2258   1.082       .  S
C2250      C2253   1.375   1_545  A
N2251      C2252   1.360       .  A
N2251      H2261   1.044       .  S
C2252      C2253   1.396       .  A
C2253      H2259   1.083       .  S
N2254      C2255   1.355       .  A
N2254      H2262   1.045       .  S
C2255      C2256   1.401       .  A
C2256      H2260   1.082       .  S
C2263      C2268   1.385       .  A
C2263      C2264   1.401       .  A
C2263      N2269   1.344       .  A
C2264      C2265   1.402       .  A
C2264      H2275   1.082       .  S
C2265      C2274   1.374       .  A
C2265      C2266   1.385       .  A
C2266      C2267   1.406       .  A
C2266      N2272   1.348       .  A
C2267      C2268   1.407       .  A
C2267      H2276   1.082       .  S
C2268      C2271   1.380       .  A
N2269      C2270   1.354       .  A
N2269      H2279   1.045       .  S
C2270      C2271   1.397       .  A
C2271      H2277   1.082       .  S
N2272      C2273   1.357       .  A
N2272      H2280   1.045       .  S
C2273      C2274   1.394       .  A
C2274      H2278   1.083       .  S
C2281      C2286   1.384   1_554  A
C2281      C2282   1.410       .  A
C2281      N2287   1.348   1_554  A
C2282      C2283   1.409       .  A
C2282      H2293   1.082       .  S
C2283      C2292   1.387       .  A
C2283      C2284   1.384       .  A
C2284      C2285   1.404       .  A
C2284      N2290   1.343       .  A
C2285      C2286   1.402   1_554  A
C2285      H2294   1.082   1_554  S
C2286      C2289   1.379       .  A
N2287      C2288   1.359       .  A
N2287      H2297   1.045       .  S
C2288      C2289   1.395       .  A
C2289      H2295   1.082       .  S
N2290      C2291   1.356       .  A
N2290      H2298   1.045       .  S
C2291      C2292   1.399       .  A
C2292      H2296   1.082       .  S
C2299      C2304   1.384       .  A
C2299      C2300   1.410       .  A
C2299      N2305   1.350       .  A
C2300      C2301   1.409       .  A
C2300      H2311   1.082       .  S
C2301      C2310   1.387       .  A
C2301      C2302   1.384       .  A
C2302      C2303   1.404       .  A
C2302      N2308   1.343       .  A
C2303      C2304   1.403       .  A
C2303      H2312   1.082       .  S
C2304      C2307   1.379       .  A
N2305      C2306   1.358       .  A
N2305      H2315   1.044       .  S
C2306      C2307   1.394       .  A
C2307      H2313   1.082       .  S
N2308      C2309   1.356       .  A
N2308      H2316   1.045       .  S
C2309      C2310   1.399       .  A
C2310      H2314   1.082       .  S
C2317      C2322   1.384       .  A
C2317      C2318   1.407       .  A
C2317      N2323   1.343       .  A
C2318      C2319   1.404       .  A
C2318      H2329   1.082       .  S
C2319      C2328   1.385       .  A
C2319      C2320   1.384       .  A
C2320      C2321   1.402       .  A
C2320      N2326   1.339       .  A
C2321      C2322   1.400       .  A
C2321      H2330   1.082       .  S
C2322      C2325   1.379       .  A
N2323      C2324   1.357       .  A
N2323      H2333   1.045       .  S
C2324      C2325   1.394       .  A
C2325      H2331   1.082       .  S
N2326      C2327   1.354       .  A
N2326      H2334   1.045       .  S
C2327      C2328   1.396       .  A
C2328      H2332   1.082       .  S
C2335      C2340   1.384       .  A
C2335      C2336   1.402       .  A
C2335      N2341   1.345       .  A
C2336      C2337   1.402       .  A
C2336      H2347   1.082       .  S
C2337      C2346   1.374       .  A
C2337      C2338   1.384       .  A
C2338      C2339   1.412       .  A
C2338      N2344   1.354       .  A
C2339      C2340   1.413       .  A
C2339      H2348   1.082       .  S
C2340      C2343   1.387       .  A
N2341      C2342   1.355       .  A
N2341      H2351   1.045       .  S
C2342      C2343   1.402       .  A
C2343      H2349   1.082       .  S
N2344      C2345   1.360       .  A
N2344      H2352   1.044       .  S
C2345      C2346   1.395       .  A
C2346      H2350   1.083       .  S
C2353      C2358   1.384       .  A
C2353      C2354   1.405       .  A
C2353      N2359   1.347       .  A
C2354      C2355   1.404       .  A
C2354      H2365   1.082       .  S
C2355      C2364   1.379       .  A
C2355      C2356   1.384       .  A
C2356      C2357   1.410       .  A
C2356      N2362   1.351       .  A
C2357      C2358   1.410       .  A
C2357      H2366   1.082       .  S
C2358      C2361   1.385       .  A
N2359      C2360   1.355       .  A
N2359      H2369   1.045       .  S
C2360      C2361   1.399       .  A
C2361      H2367   1.083       .  S
N2362      C2363   1.359       .  A
N2362      H2370   1.044       .  S
C2363      C2364   1.395       .  A
C2364      H2368   1.082       .  S
C2371      C2376   1.384       .  A
C2371      C2372   1.407       .  A
C2371      N2377   1.349       .  A
C2372      C2373   1.407       .  A
C2372      H2383   1.082       .  S
C2373      C2382   1.382       .  A
C2373      C2374   1.385       .  A
C2374      C2375   1.404       .  A
C2374      N2380   1.345       .  A
C2375      C2376   1.403       .  A
C2375      H2384   1.082       .  S
C2376      C2379   1.377       .  A
N2377      C2378   1.357       .  A
N2377      H2387   1.044       .  S
C2378      C2379   1.396       .  A
C2379      H2385   1.083       .  S
N2380      C2381   1.355       .  A
N2380      H2388   1.045       .  S
C2381      C2382   1.398       .  A
C2382      H2386   1.082       .  S
C2389      C2394   1.385       .  A
C2389      C2390   1.403       .  A
C2389      N2395   1.341       .  A
C2390      C2391   1.401       .  A
C2390      H2401   1.082       .  S
C2391      C2400   1.379       .  A
C2391      C2392   1.385       .  A
C2392      C2393   1.403       .  A
C2392      N2398   1.342       .  A
C2393      C2394   1.401       .  A
C2393      H2402   1.082       .  S
C2394      C2397   1.380       .  A
N2395      C2396   1.355       .  A
N2395      H2405   1.045       .  S
C2396      C2397   1.394       .  A
C2397      H2403   1.082       .  S
N2398      C2399   1.355       .  A
N2398      H2406   1.045       .  S
C2399      C2400   1.394       .  A
C2400      H2404   1.082       .  S
C2407      C2412   1.384       .  A
C2407      C2408   1.407       .  A
C2407      N2413   1.348       .  A
C2408      C2409   1.407       .  A
C2408      H2419   1.082       .  S
C2409      C2418   1.382       .  A
C2409      C2410   1.385       .  A
C2410      C2411   1.403       .  A
C2410      N2416   1.344       .  A
C2411      C2412   1.402       .  A
C2411      H2420   1.082       .  S
C2412      C2415   1.377       .  A
N2413      C2414   1.357       .  A
N2413      H2423   1.045       .  S
C2414      C2415   1.394       .  A
C2415      H2421   1.082       .  S
N2416      C2417   1.355       .  A
N2416      H2424   1.045       .  S
C2417      C2418   1.397       .  A
C2418      H2422   1.082       .  S
C2425      C2430   1.385       .  A
C2425      C2426   1.400       .  A
C2425      N2431   1.343   1_545  A
C2426      C2427   1.401       .  A
C2426      H2437   1.082       .  S
C2427      C2436   1.373       .  A
C2427      C2428   1.384       .  A
C2428      C2429   1.408       .  A
C2428      N2434   1.350       .  A
C2429      C2430   1.408       .  A
C2429      H2438   1.082       .  S
C2430      C2433   1.382       .  A
N2431      C2432   1.354       .  A
N2431      H2441   1.045       .  S
C2432      C2433   1.398   1_565  A
C2433      H2439   1.082       .  S
N2434      C2435   1.358       .  A
N2434      H2442   1.044       .  S
C2435      C2436   1.394       .  A
C2436      H2440   1.083       .  S
C2443      C2448   1.385       .  A
C2443      C2444   1.401       .  A
C2443      N2449   1.340       .  A
C2444      C2445   1.400       .  A
C2444      H2455   1.083       .  S
C2445      C2454   1.377       .  A
C2445      C2446   1.385       .  A
C2446      C2447   1.406       .  A
C2446      N2452   1.344       .  A
C2447      C2448   1.404       .  A
C2447      H2456   1.082       .  S
C2448      C2451   1.383       .  A
N2449      C2450   1.355       .  A
N2449      H2459   1.045       .  S
C2450      C2451   1.396       .  A
C2451      H2457   1.082       .  S
N2452      C2453   1.356       .  A
N2452      H2460   1.045       .  S
C2453      C2454   1.393       .  A
C2454      H2458   1.082       .  S
C2461      C2466   1.385       .  A
C2461      C2462   1.401       .  A
C2461      N2467   1.344       .  A
C2462      C2463   1.401       .  A
C2462      H2473   1.082       .  S
C2463      C2472   1.373       .  A
C2463      C2464   1.385       .  A
C2464      C2465   1.403       .  A
C2464      N2470   1.345       .  A
C2465      C2466   1.403       .  A
C2465      H2474   1.082       .  S
C2466      C2469   1.376       .  A
N2467      C2468   1.354       .  A
N2467      H2477   1.045       .  S
C2468      C2469   1.394       .  A
C2469      H2475   1.082       .  S
N2470      C2471   1.355       .  A
N2470      H2478   1.045       .  S
C2471      C2472   1.394       .  A
C2472      H2476   1.083       .  S
C2479      C2484   1.384   1_554  A
C2479      C2480   1.408       .  A
C2479      N2485   1.347   1_554  A
C2480      C2481   1.407       .  A
C2480      H2491   1.082       .  S
C2481      C2490   1.385       .  A
C2481      C2482   1.384       .  A
C2482      C2483   1.403       .  A
C2482      N2488   1.343       .  A
C2483      C2484   1.402   1_554  A
C2483      H2492   1.082       .  S
C2484      C2487   1.378       .  A
N2485      C2486   1.358       .  A
N2485      H2495   1.045       .  S
C2486      C2487   1.395       .  A
C2487      H2493   1.082       .  S
N2488      C2489   1.356       .  A
N2488      H2496   1.045       .  S
C2489      C2490   1.398       .  A
C2490      H2494   1.082       .  S
C2497      C2502   1.384       .  A
C2497      C2498   1.405       .  A
C2497      N2503   1.348       .  A
C2498      C2499   1.406       .  A
C2498      H2509   1.082       .  S
C2499      C2508   1.379       .  A
C2499      C2500   1.384       .  A
C2500      C2501   1.407       .  A
C2500      N2506   1.350       .  A
C2501      C2502   1.408       .  A
C2501      H2510   1.082       .  S
C2502      C2505   1.379       .  A
N2503      C2504   1.356       .  A
N2503      H2513   1.045       .  S
C2504      C2505   1.398       .  A
C2505      H2511   1.083       .  S
N2506      C2507   1.358       .  A
N2506      H2514   1.044       .  S
C2507      C2508   1.398       .  A
C2508      H2512   1.082       .  S
C2515      C2520   1.384       .  A
C2515      C2516   1.401       .  A
C2515      N2521   1.339       .  A
C2516      C2517   1.398       .  A
C2516      H2527   1.083       .  S
C2517      C2526   1.375       .  A
C2517      C2518   1.385       .  A
C2518      C2519   1.408       .  A
C2518      N2524   1.346       .  A
C2519      C2520   1.406       .  A
C2519      H2528   1.082       .  S
C2520      C2523   1.385       .  A
N2521      C2522   1.354       .  A
N2521      H2531   1.045       .  S
C2522      C2523   1.396       .  A
C2523      H2529   1.082       .  S
N2524      C2525   1.357       .  A
N2524      H2532   1.045       .  S
C2525      C2526   1.392       .  A
C2526      H2530   1.082       .  S
C2533      C2538   1.384       .  A
C2533      C2534   1.402       .  A
C2533      N2539   1.342       .  A
C2534      C2535   1.401       .  A
C2534      H2545   1.082       .  S
C2535      C2544   1.378       .  A
C2535      C2536   1.385       .  A
C2536      C2537   1.406       .  A
C2536      N2542   1.344       .  A
C2537      C2538   1.404       .  A
C2537      H2546   1.082       .  S
C2538      C2541   1.382       .  A
N2539      C2540   1.355       .  A
N2539      H2549   1.045       .  S
C2540      C2541   1.396       .  A
C2541      H2547   1.082       .  S
N2542      C2543   1.355       .  A
N2542      H2550   1.045       .  S
C2543      C2544   1.393       .  A
C2544      H2548   1.082       .  S
C2551      C2556   1.384       .  A
C2551      C2552   1.406       .  A
C2551      N2557   1.348       .  A
C2552      C2553   1.407   1_655  A
C2552      H2563   1.082       .  S
C2553      C2562   1.381       .  A
C2553      C2554   1.384       .  A
C2554      C2555   1.405       .  A
C2554      N2560   1.347       .  A
C2555      C2556   1.405   1_455  A
C2555      H2564   1.082       .  S
C2556      C2559   1.378       .  A
N2557      C2558   1.357       .  A
N2557      H2567   1.045       .  S
C2558      C2559   1.396       .  A
C2559      H2565   1.082       .  S
N2560      C2561   1.356       .  A
N2560      H2568   1.045       .  S
C2561      C2562   1.398       .  A
C2562      H2566   1.082       .  S
C2569      C2574   1.385       .  A
C2569      C2570   1.398       .  A
C2569      N2575   1.338       .  A
C2570      C2571   1.397       .  A
C2570      H2581   1.083       .  S
C2571      C2580   1.372       .  A
C2571      C2572   1.385       .  A
C2572      C2573   1.406       .  A
C2572      N2578   1.345       .  A
C2573      C2574   1.405       .  A
C2573      H2582   1.082       .  S
C2574      C2577   1.382       .  A
N2575      C2576   1.353       .  A
N2575      H2585   1.045       .  S
C2576      C2577   1.396       .  A
C2577      H2583   1.082       .  S
N2578      C2579   1.355       .  A
N2578      H2586   1.045       .  S
C2579      C2580   1.389       .  A
C2580      H2584   1.083       .  S
C2587      C2592   1.384       .  A
C2587      C2588   1.407       .  A
C2587      N2593   1.351       .  A
C2588      C2589   1.408       .  A
C2588      H2599   1.082       .  S
C2589      C2598   1.380       .  A
C2589      C2590   1.384       .  A
C2590      C2591   1.404       .  A
C2590      N2596   1.348       .  A
C2591      C2592   1.405       .  A
C2591      H2600   1.082       .  S
C2592      C2595   1.376       .  A
N2593      C2594   1.357       .  A
N2593      H2603   1.044       .  S
C2594      C2595   1.397       .  A
C2595      H2601   1.083       .  S
N2596      C2597   1.356       .  A
N2596      H2604   1.045       .  S
C2597      C2598   1.398       .  A
C2598      H2602   1.082       .  S
C2605      C2610   1.385       .  A
C2605      C2606   1.407       .  A
C2605      N2611   1.350       .  A
C2606      C2607   1.408       .  A
C2606      H2617   1.082       .  S
C2607      C2616   1.381       .  A
C2607      C2608   1.385       .  A
C2608      C2609   1.402       .  A
C2608      N2614   1.346       .  A
C2609      C2610   1.403       .  A
C2609      H2618   1.082       .  S
C2610      C2613   1.374       .  A
N2611      C2612   1.357       .  A
N2611      H2621   1.044       .  S
C2612      C2613   1.394       .  A
C2613      H2619   1.083       .  S
N2614      C2615   1.355       .  A
N2614      H2622   1.045       .  S
C2615      C2616   1.398       .  A
C2616      H2620   1.082       .  S
C2623      C2628   1.384       .  A
C2623      C2624   1.404       .  A
C2623      N2629   1.344       .  A
C2624      C2625   1.403       .  A
C2624      H2635   1.082       .  S
C2625      C2634   1.380       .  A
C2625      C2626   1.384       .  A
C2626      C2627   1.409       .  A
C2626      N2632   1.348       .  A
C2627      C2628   1.407       .  A
C2627      H2636   1.082       .  S
C2628      C2631   1.385       .  A
N2629      C2630   1.356       .  A
N2629      H2639   1.045       .  S
C2630      C2631   1.397       .  A
C2631      H2637   1.082       .  S
N2632      C2633   1.357       .  A
N2632      H2640   1.045       .  S
C2633      C2634   1.395       .  A
C2634      H2638   1.082       .  S
C2641      C2646   1.385       .  A
C2641      C2642   1.406       .  A
C2641      N2647   1.347       .  A
C2642      C2643   1.406       .  A
C2642      H2653   1.082       .  S
C2643      C2652   1.381       .  A
C2643      C2644   1.385       .  A
C2644      C2645   1.398       .  A
C2644      N2650   1.340       .  A
C2645      C2646   1.398       .  A
C2645      H2654   1.083       .  S
C2646      C2649   1.371       .  A
N2647      C2648   1.357       .  A
N2647      H2657   1.045       .  S
C2648      C2649   1.392       .  A
C2649      H2655   1.083       .  S
N2650      C2651   1.352       .  A
N2650      H2658   1.045       .  S
C2651      C2652   1.396       .  A
C2652      H2656   1.082       .  S
C2659      C2664   1.385       .  A
C2659      C2660   1.404       .  A
C2659      N2665   1.341       .  A
C2660      C2661   1.402       .  A
C2660      H2671   1.082       .  S
C2661      C2670   1.381       .  A
C2661      C2662   1.385       .  A
C2662      C2663   1.400       .  A
C2662      N2668   1.337       .  A
C2663      C2664   1.398       .  A
C2663      H2672   1.082       .  S
C2664      C2667   1.376       .  A
N2665      C2666   1.355       .  A
N2665      H2675   1.045       .  S
C2666      C2667   1.392       .  A
C2667      H2673   1.082       .  S
N2668      C2669   1.354       .  A
N2668      H2676   1.045       .  S
C2669      C2670   1.394       .  A
C2670      H2674   1.082       .  S
C2677      C2682   1.384       .  A
C2677      C2678   1.409       .  A
C2677      N2683   1.346       .  A
C2678      C2679   1.407       .  A
C2678      H2689   1.082       .  S
C2679      C2688   1.387       .  A
C2679      C2680   1.384       .  A
C2680      C2681   1.402       .  A
C2680      N2686   1.340       .  A
C2681      C2682   1.400       .  A
C2681      H2690   1.082       .  S
C2682      C2685   1.378       .  A
N2683      C2684   1.358       .  A
N2683      H2693   1.045       .  S
C2684      C2685   1.393       .  A
C2685      H2691   1.082       .  S
N2686      C2687   1.354       .  A
N2686      H2694   1.045       .  S
C2687      C2688   1.397       .  A
C2688      H2692   1.082       .  S
C2695      C2700   1.384       .  A
C2695      C2696   1.402       .  A
C2695      N2701   1.339       .  A
C2696      C2697   1.400       .  A
C2696      H2707   1.082       .  S
C2697      C2706   1.378       .  A
C2697      C2698   1.384       .  A
C2698      C2699   1.408       .  A
C2698      N2704   1.346       .  A
C2699      C2700   1.406       .  A
C2699      H2708   1.082       .  S
C2700      C2703   1.387       .  A
N2701      C2702   1.355       .  A
N2701      H2711   1.045       .  S
C2702      C2703   1.397       .  A
C2703      H2709   1.082       .  S
N2704      C2705   1.357       .  A
N2704      H2712   1.045       .  S
C2705      C2706   1.394       .  A
C2706      H2710   1.082       .  S
C2713      C2718   1.385       .  A
C2713      C2714   1.405       .  A
C2713      N2719   1.344       .  A
C2714      C2715   1.403       .  A
C2714      H2725   1.082       .  S
C2715      C2724   1.382       .  A
C2715      C2716   1.384       .  A
C2716      C2717   1.404       .  A
C2716      N2722   1.341       .  A
C2717      C2718   1.402       .  A
C2717      H2726   1.082       .  S
C2718      C2721   1.379       .  A
N2719      C2720   1.355       .  A
N2719      H2729   1.045       .  S
C2720      C2721   1.394       .  A
C2721      H2727   1.083       .  S
N2722      C2723   1.356       .  A
N2722      H2730   1.045       .  S
C2723      C2724   1.395       .  A
C2724      H2728   1.082       .  S
C2731      C2736   1.385       .  A
C2731      C2732   1.403       .  A
C2731      N2737   1.345       .  A
C2732      C2733   1.404       .  A
C2732      H2743   1.082       .  S
C2733      C2742   1.376       .  A
C2733      C2734   1.386       .  A
C2734      C2735   1.396       .  A
C2734      N2740   1.339       .  A
C2735      C2736   1.396       .  A
C2735      H2744   1.083       .  S
C2736      C2739   1.366       .  A
N2737      C2738   1.355       .  A
N2737      H2747   1.045       .  S
C2738      C2739   1.391       .  A
C2739      H2745   1.083       .  S
N2740      C2741   1.351       .  A
N2740      H2748   1.045       .  S
C2741      C2742   1.394       .  A
C2742      H2746   1.082       .  S
C2749      C2754   1.385       .  A
C2749      C2750   1.405       .  A
C2749      N2755   1.347       .  A
C2750      C2751   1.406       .  A
C2750      H2761   1.082       .  S
C2751      C2760   1.380       .  A
C2751      C2752   1.385       .  A
C2752      C2753   1.400       .  A
C2752      N2758   1.342       .  A
C2753      C2754   1.400       .  A
C2753      H2762   1.083       .  S
C2754      C2757   1.372       .  A
N2755      C2756   1.355       .  A
N2755      H2765   1.044       .  S
C2756      C2757   1.393       .  A
C2757      H2763   1.083       .  S
N2758      C2759   1.353       .  A
N2758      H2766   1.045       .  S
C2759      C2760   1.396       .  A
C2760      H2764   1.082       .  S
C2767      C2772   1.385       .  A
C2767      C2768   1.404       .  A
C2767      N2773   1.345       .  A
C2768      C2769   1.404       .  A
C2768      H2779   1.082       .  S
C2769      C2778   1.378       .  A
C2769      C2770   1.385       .  A
C2770      C2771   1.403       .  A
C2770      N2776   1.344       .  A
C2771      C2772   1.403       .  A
C2771      H2780   1.082       .  S
C2772      C2775   1.377       .  A
N2773      C2774   1.356       .  A
N2773      H2783   1.045       .  S
C2774      C2775   1.395       .  A
C2775      H2781   1.082       .  S
N2776      C2777   1.355       .  A
N2776      H2784   1.045       .  S
C2777      C2778   1.395       .  A
C2778      H2782   1.082       .  S
C2785      C2790   1.384       .  A
C2785      C2786   1.401       .  A
C2785      N2791   1.339       .  A
C2786      C2787   1.399       .  A
C2786      H2797   1.082       .  S
C2787      C2796   1.377       .  A
C2787      C2788   1.384       .  A
C2788      C2789   1.408       .  A
C2788      N2794   1.346       .  A
C2789      C2790   1.406       .  A
C2789      H2798   1.082       .  S
C2790      C2793   1.385       .  A
N2791      C2792   1.353       .  A
N2791      H2801   1.045       .  S
C2792      C2793   1.397       .  A
C2793      H2799   1.082       .  S
N2794      C2795   1.357       .  A
N2794      H2802   1.045       .  S
C2795      C2796   1.393       .  A
C2796      H2800   1.083       .  S
C2803      C2808   1.384       .  A
C2803      C2804   1.404       .  A
C2803      N2809   1.341       .  A
C2804      C2805   1.402       .  A
C2804      H2815   1.082       .  S
C2805      C2814   1.380       .  A
C2805      C2806   1.384       .  A
C2806      C2807   1.407       .  A
C2806      N2812   1.344       .  A
C2807      C2808   1.405       .  A
C2807      H2816   1.082       .  S
C2808      C2811   1.384       .  A
N2809      C2810   1.356       .  A
N2809      H2819   1.045       .  S
C2810      C2811   1.397       .  A
C2811      H2817   1.082       .  S
N2812      C2813   1.357       .  A
N2812      H2820   1.045       .  S
C2813      C2814   1.394       .  A
C2814      H2818   1.082       .  S
C2821      C2826   1.385       .  A
C2821      C2822   1.404       .  A
C2821      N2827   1.346       .  A
C2822      C2823   1.404       .  A
C2822      H2833   1.082       .  S
C2823      C2832   1.377       .  A
C2823      C2824   1.385       .  A
C2824      C2825   1.405       .  A
C2824      N2830   1.347       .  A
C2825      C2826   1.405       .  A
C2825      H2834   1.082       .  S
C2826      C2829   1.378       .  A
N2827      C2828   1.356       .  A
N2827      H2837   1.045       .  S
C2828      C2829   1.395       .  A
C2829      H2835   1.082       .  S
N2830      C2831   1.356       .  A
N2830      H2838   1.045       .  S
C2831      C2832   1.396       .  A
C2832      H2836   1.082       .  S
C2839      C2844   1.385       .  A
C2839      C2840   1.403       .  A
C2839      N2845   1.343       .  A
C2840      C2841   1.402       .  A
C2840      H2851   1.082       .  S
C2841      C2850   1.378       .  A
C2841      C2842   1.384       .  A
C2842      C2843   1.407       .  A
C2842      N2848   1.346       .  A
C2843      C2844   1.406       .  A
C2843      H2852   1.082       .  S
C2844      C2847   1.382       .  A
N2845      C2846   1.355       .  A
N2845      H2855   1.045       .  S
C2846      C2847   1.396       .  A
C2847      H2853   1.082       .  S
N2848      C2849   1.357       .  A
N2848      H2856   1.045       .  S
C2849      C2850   1.393       .  A
C2850      H2854   1.082       .  S
C2857      C2862   1.384       .  A
C2857      C2858   1.406       .  A
C2857      N2863   1.343       .  A
C2858      C2859   1.403       .  A
C2858      H2869   1.082       .  S
C2859      C2868   1.383       .  A
C2859      C2860   1.384       .  A
C2860      C2861   1.403       .  A
C2860      N2866   1.340       .  A
C2861      C2862   1.401       .  A
C2861      H2870   1.082       .  S
C2862      C2865   1.380       .  A
N2863      C2864   1.356       .  A
N2863      H2873   1.045       .  S
C2864      C2865   1.394       .  A
C2865      H2871   1.082       .  S
N2866      C2867   1.355       .  A
N2866      H2874   1.045       .  S
C2867      C2868   1.395       .  A
C2868      H2872   1.082       .  S
C2875      C2880   1.385   1_545  A
C2875      C2876   1.402       .  A
C2875      N2881   1.344       .  A
C2876      C2877   1.402       .  A
C2876      H2887   1.082       .  S
C2877      C2886   1.376       .  A
C2877      C2878   1.384       .  A
C2878      C2879   1.407   1_645  A
C2878      N2884   1.348       .  A
C2879      C2880   1.407   1_455  A
C2879      H2888   1.082       .  S
C2880      C2883   1.381       .  A
N2881      C2882   1.355   1_545  A
N2881      H2891   1.045       .  S
C2882      C2883   1.397       .  A
C2883      H2889   1.082       .  S
N2884      C2885   1.357       .  A
N2884      H2892   1.044   1_655  S
C2885      C2886   1.395       .  A
C2886      H2890   1.083       .  S
C2893      C2898   1.385       .  A
C2893      C2894   1.404       .  A
C2893      N2899   1.344       .  A
C2894      C2895   1.403       .  A
C2894      H2905   1.082       .  S
C2895      C2904   1.378       .  A
C2895      C2896   1.385       .  A
C2896      C2897   1.403       .  A
C2896      N2902   1.342       .  A
C2897      C2898   1.402       .  A
C2897      H2906   1.082       .  S
C2898      C2901   1.378       .  A
N2899      C2900   1.356       .  A
N2899      H2909   1.045       .  S
C2900      C2901   1.394       .  A
C2901      H2907   1.082       .  S
N2902      C2903   1.355       .  A
N2902      H2910   1.045       .  S
C2903      C2904   1.394       .  A
C2904      H2908   1.082       .  S
C2911      C2916   1.384       .  A
C2911      C2912   1.411       .  A
C2911      N2917   1.348       .  A
C2912      C2913   1.409       .  A
C2912      H2923   1.082       .  S
C2913      C2922   1.389       .  A
C2913      C2914   1.384       .  A
C2914      C2915   1.403       .  A
C2914      N2920   1.341       .  A
C2915      C2916   1.401       .  A
C2915      H2924   1.082       .  S
C2916      C2919   1.379       .  A
N2917      C2918   1.359       .  A
N2917      H2927   1.045       .  S
C2918      C2919   1.393       .  A
C2919      H2925   1.082       .  S
N2920      C2921   1.355       .  A
N2920      H2928   1.045       .  S
C2921      C2922   1.399       .  A
C2922      H2926   1.082       .  S
C2929      C2934   1.384       .  A
C2929      C2930   1.408       .  A
C2929      N2935   1.350       .  A
C2930      C2931   1.409       .  A
C2930      H2941   1.082       .  S
C2931      C2940   1.383       .  A
C2931      C2932   1.385       .  A
C2932      C2933   1.400       .  A
C2932      N2938   1.343       .  A
C2933      C2934   1.400       .  A
C2933      H2942   1.082       .  S
C2934      C2937   1.372       .  A
N2935      C2936   1.358       .  A
N2935      H2945   1.044       .  S
C2936      C2937   1.394       .  A
C2937      H2943   1.083       .  S
N2938      C2939   1.354       .  A
N2938      H2946   1.045       .  S
C2939      C2940   1.399       .  A
C2940      H2944   1.082       .  S
C2947      C2952   1.385       .  A
C2947      C2948   1.403       .  A
C2947      N2953   1.341       .  A
C2948      C2949   1.401       .  A
C2948      H2959   1.082       .  S
C2949      C2958   1.379       .  A
C2949      C2950   1.384       .  A
C2950      C2951   1.407       .  A
C2950      N2956   1.345       .  A
C2951      C2952   1.405       .  A
C2951      H2960   1.082       .  S
C2952      C2955   1.384       .  A
N2953      C2954   1.354       .  A
N2953      H2963   1.045       .  S
C2954      C2955   1.395       .  A
C2955      H2961   1.082       .  S
N2956      C2957   1.357       .  A
N2956      H2964   1.045       .  S
C2957      C2958   1.394       .  A
C2958      H2962   1.082       .  S
C2965      C2970   1.385       .  A
C2965      C2966   1.402       .  A
C2965      N2971   1.344       .  A
C2966      C2967   1.402       .  A
C2966      H2977   1.082       .  S
C2967      C2976   1.375       .  A
C2967      C2968   1.385       .  A
C2968      C2969   1.402       .  A
C2968      N2974   1.343       .  A
C2969      C2970   1.402       .  A
C2969      H2978   1.082       .  S
C2970      C2973   1.375       .  A
N2971      C2972   1.354       .  A
N2971      H2981   1.045       .  S
C2972      C2973   1.394       .  A
C2973      H2979   1.082       .  S
N2974      C2975   1.354       .  A
N2974      H2982   1.045       .  S
C2975      C2976   1.394       .  A
C2976      H2980   1.082       .  S
C2983      C2988   1.384   1_565  A
C2983      C2984   1.409       .  A
C2983      N2989   1.347       .  A
C2984      C2985   1.408   1_565  A
C2984      H2995   1.082       .  S
C2985      C2994   1.387       .  A
C2985      C2986   1.384       .  A
C2986      C2987   1.405       .  A
C2986      N2992   1.343       .  A
C2987      C2988   1.403       .  A
C2987      H2996   1.082       .  S
C2988      C2991   1.381       .  A
N2989      C2990   1.359       .  A
N2989      H2999   1.045       .  S
C2990      C2991   1.396   1_565  A
C2991      H2997   1.082       .  S
N2992      C2993   1.356       .  A
N2992      H3000   1.045       .  S
C2993      C2994   1.399       .  A
C2994      H2998   1.082       .  S
C3001      C3006   1.385       .  A
C3001      C3002   1.401       .  A
C3001      N3007   1.345       .  A
C3002      C3003   1.401       .  A
C3002      H3013   1.082       .  S
C3003      C3012   1.372       .  A
C3003      C3004   1.384       .  A
C3004      C3005   1.409       .  A
C3004      N3010   1.352       .  A
C3005      C3006   1.410       .  A
C3005      H3014   1.082       .  S
C3006      C3009   1.383       .  A
N3007      C3008   1.354       .  A
N3007      H3017   1.045       .  S
C3008      C3009   1.399       .  A
C3009      H3015   1.082       .  S
N3010      C3011   1.358       .  A
N3010      H3018   1.044       .  S
C3011      C3012   1.393       .  A
C3012      H3016   1.083       .  S
C3019      C3024   1.385       .  A
C3019      C3020   1.402       .  A
C3019      N3025   1.345       .  A
C3020      C3021   1.403       .  A
C3020      H3031   1.082       .  S
C3021      C3030   1.374       .  A
C3021      C3022   1.385       .  A
C3022      C3023   1.403       .  A
C3022      N3028   1.346       .  A
C3023      C3024   1.404       .  A
C3023      H3032   1.082       .  S
C3024      C3027   1.375       .  A
N3025      C3026   1.354       .  A
N3025      H3035   1.045       .  S
C3026      C3027   1.396       .  A
C3027      H3033   1.083       .  S
N3028      C3029   1.355       .  A
N3028      H3036   1.045       .  S
C3029      C3030   1.395       .  A
C3030      H3034   1.083       .  S
C3037      C3042   1.384       .  A
C3037      C3038   1.405       .  A
C3037      N3043   1.343       .  A
C3038      C3039   1.403       .  A
C3038      H3049   1.082       .  S
C3039      C3048   1.380       .  A
C3039      C3040   1.384       .  A
C3040      C3041   1.407       .  A
C3040      N3046   1.345       .  A
C3041      C3042   1.405       .  A
C3041      H3050   1.082       .  S
C3042      C3045   1.384       .  A
N3043      C3044   1.356       .  A
N3043      H3053   1.045   1_565  S
C3044      C3045   1.396       .  A
C3045      H3051   1.082       .  S
N3046      C3047   1.356       .  A
N3046      H3054   1.045       .  S
C3047      C3048   1.395       .  A
C3048      H3052   1.082       .  S
C3055      C3060   1.384       .  A
C3055      C3056   1.404       .  A
C3055      N3061   1.341       .  A
C3056      C3057   1.401       .  A
C3056      H3067   1.082       .  S
C3057      C3066   1.380       .  A
C3057      C3058   1.384       .  A
C3058      C3059   1.408       .  A
C3058      N3064   1.345       .  A
C3059      C3060   1.406       .  A
C3059      H3068   1.082       .  S
C3060      C3063   1.385       .  A
N3061      C3062   1.356       .  A
N3061      H3071   1.045       .  S
C3062      C3063   1.397       .  A
C3063      H3069   1.082       .  S
N3064      C3065   1.357       .  A
N3064      H3072   1.045       .  S
C3065      C3066   1.394       .  A
C3066      H3070   1.082       .  S
C3073      C3078   1.384       .  A
C3073      C3074   1.410       .  A
C3073      N3079   1.346       .  A
C3074      C3075   1.408       .  A
C3074      H3085   1.082       .  S
C3075      C3084   1.388       .  A
C3075      C3076   1.384       .  A
C3076      C3077   1.401       .  A
C3076      N3082   1.339       .  A
C3077      C3078   1.399       .  A
C3077      H3086   1.082       .  S
C3078      C3081   1.377       .  A
N3079      C3080   1.358       .  A
N3079      H3089   1.045       .  S
C3080      C3081   1.391       .  A
C3081      H3087   1.082       .  S
N3082      C3083   1.354       .  A
N3082      H3090   1.045       .  S
C3083      C3084   1.398       .  A
C3084      H3088   1.082       .  S
C3091      C3096   1.384       .  A
C3091      C3092   1.407       .  A
C3091      N3097   1.345       .  A
C3092      C3093   1.406       .  A
C3092      H3103   1.082       .  S
C3093      C3102   1.385       .  A
C3093      C3094   1.384       .  A
C3094      C3095   1.403       .  A
C3094      N3100   1.341       .  A
C3095      C3096   1.401       .  A
C3095      H3104   1.082       .  S
C3096      C3099   1.379       .  A
N3097      C3098   1.356       .  A
N3097      H3107   1.045       .  S
C3098      C3099   1.394       .  A
C3099      H3105   1.082       .  S
N3100      C3101   1.355       .  A
N3100      H3108   1.045       .  S
C3101      C3102   1.396       .  A
C3102      H3106   1.082       .  S
C3109      C3114   1.384       .  A
C3109      C3110   1.405       .  A
C3109      N3115   1.343       .  A
C3110      C3111   1.403       .  A
C3110      H3121   1.082       .  S
C3111      C3120   1.381       .  A
C3111      C3112   1.384       .  A
C3112      C3113   1.406       .  A
C3112      N3118   1.344       .  A
C3113      C3114   1.404       .  A
C3113      H3122   1.082       .  S
C3114      C3117   1.382       .  A
N3115      C3116   1.356       .  A
N3115      H3125   1.045       .  S
C3116      C3117   1.396       .  A
C3117      H3123   1.082       .  S
N3118      C3119   1.356       .  A
N3118      H3126   1.045       .  S
C3119      C3120   1.396       .  A
C3120      H3124   1.082       .  S
C3127      C3132   1.383   1_556  A
C3127      C3128   1.411       .  A
C3127      N3133   1.348       .  A
C3128      C3129   1.409   1_556  A
C3128      H3139   1.082       .  S
C3129      C3138   1.389       .  A
C3129      C3130   1.383       .  A
C3130      C3131   1.405       .  A
C3130      N3136   1.343       .  A
C3131      C3132   1.403       .  A
C3131      H3140   1.082       .  S
C3132      C3135   1.382       .  A
N3133      C3134   1.359       .  A
N3133      H3143   1.045       .  S
C3134      C3135   1.396   1_556  A
C3135      H3141   1.082       .  S
N3136      C3137   1.357       .  A
N3136      H3144   1.045       .  S
C3137      C3138   1.400       .  A
C3138      H3142   1.082   1_554  S
C3145      C3150   1.385       .  A
C3145      C3146   1.403       .  A
C3145      N3151   1.346       .  A
C3146      C3147   1.403       .  A
C3146      H3157   1.082       .  S
C3147      C3156   1.376       .  A
C3147      C3148   1.385       .  A
C3148      C3149   1.403       .  A
C3148      N3154   1.345       .  A
C3149      C3150   1.403       .  A
C3149      H3158   1.082       .  S
C3150      C3153   1.376       .  A
N3151      C3152   1.355       .  A
N3151      H3161   1.045       .  S
C3152      C3153   1.396       .  A
C3153      H3159   1.083       .  S
N3154      C3155   1.355       .  A
N3154      H3162   1.045       .  S
C3155      C3156   1.395       .  A
C3156      H3160   1.082       .  S
C3163      C3168   1.385       .  A
C3163      C3164   1.404       .  A
C3163      N3169   1.347       .  A
C3164      C3165   1.405       .  A
C3164      H3175   1.082       .  S
C3165      C3174   1.379       .  A
C3165      C3166   1.384       .  A
C3166      C3167   1.405       .  A
C3166      N3172   1.346       .  A
C3167      C3168   1.404       .  A
C3167      H3176   1.082   1_556  S
C3168      C3171   1.377       .  A
N3169      C3170   1.355       .  A
N3169      H3179   1.045       .  S
C3170      C3171   1.395       .  A
C3171      H3177   1.083   1_556  S
N3172      C3173   1.356       .  A
N3172      H3180   1.045       .  S
C3173      C3174   1.395       .  A
C3174      H3178   1.083       .  S
C3181      C3186   1.384       .  A
C3181      C3182   1.406       .  A
C3181      N3187   1.344       .  A
C3182      C3183   1.404       .  A
C3182      H3193   1.082       .  S
C3183      C3192   1.382       .  A
C3183      C3184   1.384       .  A
C3184      C3185   1.405       .  A
C3184      N3190   1.343       .  A
C3185      C3186   1.403       .  A
C3185      H3194   1.082       .  S
C3186      C3189   1.381       .  A
N3187      C3188   1.357       .  A
N3187      H3197   1.045       .  S
C3188      C3189   1.396       .  A
C3189      H3195   1.082       .  S
N3190      C3191   1.356       .  A
N3190      H3198   1.045       .  S
C3191      C3192   1.396       .  A
C3192      H3196   1.082       .  S
C3199      C3204   1.385       .  A
C3199      C3200   1.401       .  A
C3199      N3205   1.345       .  A
C3200      C3201   1.402       .  A
C3200      H3211   1.082       .  S
C3201      C3210   1.373       .  A
C3201      C3202   1.384       .  A
C3202      C3203   1.408       .  A
C3202      N3208   1.351       .  A
C3203      C3204   1.409       .  A
C3203      H3212   1.082       .  S
C3204      C3207   1.383       .  A
N3205      C3206   1.354       .  A
N3205      H3215   1.045       .  S
C3206      C3207   1.398       .  A
C3207      H3213   1.082       .  S
N3208      C3209   1.358       .  A
N3208      H3216   1.044       .  S
C3209      C3210   1.395       .  A
C3210      H3214   1.083       .  S
C3217      C3222   1.385       .  A
C3217      C3218   1.404       .  A
C3217      N3223   1.347       .  A
C3218      C3219   1.404       .  A
C3218      H3229   1.082       .  S
C3219      C3228   1.377       .  A
C3219      C3220   1.385       .  A
C3220      C3221   1.403       .  A
C3220      N3226   1.346       .  A
C3221      C3222   1.404       .  A
C3221      H3230   1.082       .  S
C3222      C3225   1.376       .  A
N3223      C3224   1.355       .  A
N3223      H3233   1.045       .  S
C3224      C3225   1.396       .  A
C3225      H3231   1.082       .  S
N3226      C3227   1.355       .  A
N3226      H3234   1.045       .  S
C3227      C3228   1.396       .  A
C3228      H3232   1.082       .  S
C3235      C3240   1.384       .  A
C3235      C3236   1.407       .  A
C3235      N3241   1.349       .  A
C3236      C3237   1.407       .  A
C3236      H3247   1.082       .  S
C3237      C3246   1.381       .  A
C3237      C3238   1.385   1_565  A
C3238      C3239   1.403       .  A
C3238      N3244   1.346       .  A
C3239      C3240   1.404   1_545  A
C3239      H3248   1.082       .  S
C3240      C3243   1.376       .  A
N3241      C3242   1.357       .  A
N3241      H3251   1.044       .  S
C3242      C3243   1.395       .  A
C3243      H3249   1.082   1_565  S
N3244      C3245   1.355       .  A
N3244      H3252   1.045       .  S
C3245      C3246   1.397   1_545  A
C3246      H3250   1.082       .  S
C3253      C3258   1.385       .  A
C3253      C3254   1.402       .  A
C3253      N3259   1.338       .  A
C3254      C3255   1.399       .  A
C3254      H3265   1.082       .  S
C3255      C3264   1.379       .  A
C3255      C3256   1.385       .  A
C3256      C3257   1.402       .  A
C3256      N3262   1.338       .  A
C3257      C3258   1.399       .  A
C3257      H3266   1.082       .  S
C3258      C3261   1.379       .  A
N3259      C3260   1.355       .  A
N3259      H3269   1.045       .  S
C3260      C3261   1.393       .  A
C3261      H3267   1.082       .  S
N3262      C3263   1.355       .  A
N3262      H3270   1.045       .  S
C3263      C3264   1.392       .  A
C3264      H3268   1.082       .  S
C3271      C3276   1.383       .  A
C3271      C3272   1.406       .  A
C3271      N3277   1.343       .  A
C3272      C3273   1.404       .  A
C3272      H3283   1.082       .  S
C3273      C3282   1.383       .  A
C3273      C3274   1.383   1_554  A
C3274      C3275   1.409       .  A
C3274      N3280   1.346       .  A
C3275      C3276   1.407   1_556  A
C3275      H3284   1.082       .  S
C3276      C3279   1.388       .  A
N3277      C3278   1.357       .  A
N3277      H3287   1.045       .  S
C3278      C3279   1.398       .  A
C3279      H3285   1.082   1_554  S
N3280      C3281   1.358       .  A
N3280      H3288   1.045       .  S
C3281      C3282   1.397   1_556  A
C3282      H3286   1.082       .  S
C3289      C3294   1.384       .  A
C3289      C3290   1.408       .  A
C3289      N3295   1.346       .  A
C3290      C3291   1.406       .  A
C3290      H3301   1.082       .  S
C3291      C3300   1.385       .  A
C3291      C3292   1.384       .  A
C3292      C3293   1.405       .  A
C3292      N3298   1.344       .  A
C3293      C3294   1.404       .  A
C3293      H3302   1.082       .  S
C3294      C3297   1.381       .  A
N3295      C3296   1.356       .  A
N3295      H3305   1.045       .  S
C3296      C3297   1.395       .  A
C3297      H3303   1.082       .  S
N3298      C3299   1.356       .  A
N3298      H3306   1.045       .  S
C3299      C3300   1.397       .  A
C3300      H3304   1.082       .  S
C3307      C3312   1.385       .  A
C3307      C3308   1.405       .  A
C3307      N3313   1.349       .  A
C3308      C3309   1.406       .  A
C3308      H3319   1.082       .  S
C3309      C3318   1.377       .  A
C3309      C3310   1.385       .  A
C3310      C3311   1.399       .  A
C3310      N3316   1.343       .  A
C3311      C3312   1.400       .  A
C3311      H3320   1.083       .  S
C3312      C3315   1.369       .  A
N3313      C3314   1.356       .  A
N3313      H3323   1.044       .  S
C3314      C3315   1.394       .  A
C3315      H3321   1.083       .  S
N3316      C3317   1.353       .  A
N3316      H3324   1.045       .  S
C3317      C3318   1.396       .  A
C3318      H3322   1.082       .  S
C3325      C3330   1.385       .  A
C3325      C3326   1.406       .  A
C3325      N3331   1.345       .  A
C3326      C3327   1.404       .  A
C3326      H3337   1.082       .  S
C3327      C3336   1.382       .  A
C3327      C3328   1.385       .  A
C3328      C3329   1.401       .  A
C3328      N3334   1.341       .  A
C3329      C3330   1.400       .  A
C3329      H3338   1.082       .  S
C3330      C3333   1.376       .  A
N3331      C3332   1.356       .  A
N3331      H3341   1.045       .  S
C3332      C3333   1.394       .  A
C3333      H3339   1.083       .  S
N3334      C3335   1.353       .  A
N3334      H3342   1.045       .  S
C3335      C3336   1.394       .  A
C3336      H3340   1.082       .  S
C3343      C3348   1.385       .  A
C3343      C3344   1.406       .  A
C3343      N3349   1.343       .  A
C3344      C3345   1.404       .  A
C3344      H3355   1.082       .  S
C3345      C3354   1.383       .  A
C3345      C3346   1.384       .  A
C3346      C3347   1.402       .  A
C3346      N3352   1.339       .  A
C3347      C3348   1.400       .  A
C3347      H3356   1.082       .  S
C3348      C3351   1.378       .  A
N3349      C3350   1.356       .  A
N3349      H3359   1.045       .  S
C3350      C3351   1.393       .  A
C3351      H3357   1.082       .  S
N3352      C3353   1.355       .  A
N3352      H3360   1.045   1_565  S
C3353      C3354   1.396       .  A
C3354      H3358   1.082       .  S
C3361      C3366   1.385       .  A
C3361      C3362   1.400       .  A
C3361      N3367   1.343       .  A
C3362      C3363   1.401       .  A
C3362      H3373   1.082       .  S
C3363      C3372   1.371       .  A
C3363      C3364   1.385       .  A
C3364      C3365   1.402       .  A
C3364      N3370   1.346       .  A
C3365      C3366   1.403       .  A
C3365      H3374   1.082       .  S
C3366      C3369   1.374       .  A
N3367      C3368   1.354       .  A
N3367      H3377   1.045       .  S
C3368      C3369   1.394       .  A
C3369      H3375   1.082       .  S
N3370      C3371   1.354       .  A
N3370      H3378   1.044       .  S
C3371      C3372   1.394       .  A
C3372      H3376   1.083       .  S
C3379      C3384   1.384       .  A
C3379      C3380   1.401       .  A
C3379      N3385   1.341       .  A
C3380      C3381   1.400       .  A
C3380      H3391   1.082       .  S
C3381      C3390   1.376       .  A
C3381      C3382   1.384       .  A
C3382      C3383   1.411       .  A
C3382      N3388   1.349       .  A
C3383      C3384   1.410       .  A
C3383      H3392   1.082       .  S
C3384      C3387   1.388       .  A
N3385      C3386   1.355       .  A
N3385      H3395   1.045       .  S
C3386      C3387   1.399       .  A
C3387      H3393   1.082       .  S
N3388      C3389   1.360       .  A
N3388      H3396   1.045       .  S
C3389      C3390   1.393       .  A
C3390      H3394   1.082       .  S
C3397      C3402   1.385       .  A
C3397      C3398   1.401       .  A
C3397      N3403   1.342       .  A
C3398      C3399   1.401       .  A
C3398      H3409   1.082       .  S
C3399      C3408   1.374       .  A
C3399      C3400   1.386       .  A
C3400      C3401   1.400       .  A
C3400      N3406   1.342       .  A
C3401      C3402   1.400       .  A
C3401      H3410   1.082       .  S
C3402      C3405   1.373       .  A
N3403      C3404   1.354       .  A
N3403      H3413   1.045       .  S
C3404      C3405   1.392       .  A
C3405      H3411   1.082       .  S
N3406      C3407   1.353       .  A
N3406      H3414   1.045       .  S
C3407      C3408   1.394       .  A
C3408      H3412   1.083       .  S
C3415      C3420   1.385       .  A
C3415      C3416   1.401       .  A
C3415      N3421   1.343       .  A
C3416      C3417   1.401       .  A
C3416      H3427   1.082       .  S
C3417      C3426   1.373       .  A
C3417      C3418   1.385       .  A
C3418      C3419   1.407       .  A
C3418      N3424   1.348       .  A
C3419      C3420   1.407       .  A
C3419      H3428   1.082       .  S
C3420      C3423   1.381       .  A
N3421      C3422   1.354       .  A
N3421      H3431   1.045       .  S
C3422      C3423   1.397       .  A
C3423      H3429   1.082       .  S
N3424      C3425   1.357       .  A
N3424      H3432   1.044       .  S
C3425      C3426   1.394       .  A
C3426      H3430   1.083   1_545  S
C3433      C3438   1.385       .  A
C3433      C3434   1.403       .  A
C3433      N3439   1.343       .  A
C3434      C3435   1.402       .  A
C3434      H3445   1.082       .  S
C3435      C3444   1.378       .  A
C3435      C3436   1.385       .  A
C3436      C3437   1.402       .  A
C3436      N3442   1.341       .  A
C3437      C3438   1.401       .  A
C3437      H3446   1.082       .  S
C3438      C3441   1.376       .  A
N3439      C3440   1.354       .  A
N3439      H3449   1.045       .  S
C3440      C3441   1.393       .  A
C3441      H3447   1.082       .  S
N3442      C3443   1.354       .  A
N3442      H3450   1.045       .  S
C3443      C3444   1.393       .  A
C3444      H3448   1.083       .  S
C3451      C3456   1.385       .  A
C3451      C3452   1.404       .  A
C3451      N3457   1.344       .  A
C3452      C3453   1.403       .  A
C3452      H3463   1.082       .  S
C3453      C3462   1.378       .  A
C3453      C3454   1.385       .  A
C3454      C3455   1.402       .  A
C3454      N3460   1.343       .  A
C3455      C3456   1.402       .  A
C3455      H3464   1.082       .  S
C3456      C3459   1.376       .  A
N3457      C3458   1.355       .  A
N3457      H3467   1.045       .  S
C3458      C3459   1.395       .  A
C3459      H3465   1.082       .  S
N3460      C3461   1.355       .  A
N3460      H3468   1.045       .  S
C3461      C3462   1.395       .  A
C3462      H3466   1.082       .  S
C3469      C3474   1.384       .  A
C3469      C3470   1.409       .  A
C3469      N3475   1.348       .  A
C3470      C3471   1.408       .  A
C3470      H3481   1.082       .  S
C3471      C3480   1.386       .  A
C3471      C3472   1.384       .  A
C3472      C3473   1.405       .  A
C3472      N3478   1.344       .  A
C3473      C3474   1.403       .  A
C3473      H3482   1.082       .  S
C3474      C3477   1.381       .  A
N3475      C3476   1.359       .  A
N3475      H3485   1.045       .  S
C3476      C3477   1.396       .  A
C3477      H3483   1.082       .  S
N3478      C3479   1.357       .  A
N3478      H3486   1.045       .  S
C3479      C3480   1.398       .  A
C3480      H3484   1.082       .  S
C3487      C3492   1.385       .  A
C3487      C3488   1.407       .  A
C3487      N3493   1.344       .  A
C3488      C3489   1.405       .  A
C3488      H3499   1.082       .  S
C3489      C3498   1.384       .  A
C3489      C3490   1.384       .  A
C3490      C3491   1.400       .  A
C3490      N3496   1.338       .  A
C3491      C3492   1.397       .  A
C3491      H3500   1.083       .  S
C3492      C3495   1.374       .  A
N3493      C3494   1.356       .  A
N3493      H3503   1.045       .  S
C3494      C3495   1.391       .  A
C3495      H3501   1.082       .  S
N3496      C3497   1.354       .  A
N3496      H3504   1.045       .  S
C3497      C3498   1.396       .  A
C3498      H3502   1.082       .  S
C3505      C3510   1.385       .  A
C3505      C3506   1.403       .  A
C3505      N3511   1.345       .  A
C3506      C3507   1.403       .  A
C3506      H3517   1.082       .  S
C3507      C3516   1.374       .  A
C3507      C3508   1.385       .  A
C3508      C3509   1.405       .  A
C3508      N3514   1.349       .  A
C3509      C3510   1.406       .  A
C3509      H3518   1.082       .  S
C3510      C3513   1.379       .  A
N3511      C3512   1.355       .  A
N3511      H3521   1.045       .  S
C3512      C3513   1.397       .  A
C3513      H3519   1.082       .  S
N3514      C3515   1.356       .  A
N3514      H3522   1.044       .  S
C3515      C3516   1.395       .  A
C3516      H3520   1.083       .  S
C3523      C3528   1.385       .  A
C3523      C3524   1.403       .  A
C3523      N3529   1.344       .  A
C3524      C3525   1.402       .  A
C3524      H3535   1.082       .  S
C3525      C3534   1.377       .  A
C3525      C3526   1.384       .  A
C3526      C3527   1.406       .  A
C3526      N3532   1.347       .  A
C3527      C3528   1.406       .  A
C3527      H3536   1.082       .  S
C3528      C3531   1.382       .  A
N3529      C3530   1.355       .  A
N3529      H3539   1.045       .  S
C3530      C3531   1.396       .  A
C3531      H3537   1.082       .  S
N3532      C3533   1.356       .  A
N3532      H3540   1.045       .  S
C3533      C3534   1.394       .  A
C3534      H3538   1.082       .  S
C3541      C3546   1.385       .  A
C3541      C3542   1.403       .  A
C3541      N3547   1.348       .  A
C3542      C3543   1.405       .  A
C3542      H3553   1.082       .  S
C3543      C3552   1.375       .  A
C3543      C3544   1.385       .  A
C3544      C3545   1.404       .  A
C3544      N3550   1.348       .  A
C3545      C3546   1.405       .  A
C3545      H3554   1.082       .  S
C3546      C3549   1.376       .  A
N3547      C3548   1.355       .  A
N3547      H3557   1.045       .  S
C3548      C3549   1.396       .  A
C3549      H3555   1.082       .  S
N3550      C3551   1.356       .  A
N3550      H3558   1.045       .  S
C3551      C3552   1.396       .  A
C3552      H3556   1.082       .  S
C3559      C3564   1.384       .  A
C3559      C3560   1.409       .  A
C3559      N3565   1.350       .  A
C3560      C3561   1.410       .  A
C3560      H3571   1.082       .  S
C3561      C3570   1.384       .  A
C3561      C3562   1.385       .  A
C3562      C3563   1.401       .  A
C3562      N3568   1.343       .  A
C3563      C3564   1.401       .  A
C3563      H3572   1.082   1_545  S
C3564      C3567   1.373   1_545  A
N3565      C3566   1.358       .  A
N3565      H3575   1.044       .  S
C3566      C3567   1.394   1_545  A
C3567      H3573   1.083       .  S
N3568      C3569   1.354       .  A
N3568      H3576   1.045       .  S
C3569      C3570   1.400       .  A
C3570      H3574   1.082       .  S
C3577      C3582   1.384       .  A
C3577      C3578   1.403       .  A
C3577      N3583   1.340       .  A
C3578      C3579   1.401       .  A
C3578      H3589   1.082   1_565  S
C3579      C3588   1.380   1_565  A
C3579      C3580   1.384       .  A
C3580      C3581   1.408       .  A
C3580      N3586   1.345       .  A
C3581      C3582   1.406       .  A
C3581      H3590   1.082       .  S
C3582      C3585   1.386       .  A
N3583      C3584   1.355       .  A
N3583      H3593   1.045       .  S
C3584      C3585   1.397       .  A
C3585      H3591   1.082       .  S
N3586      C3587   1.357       .  A
N3586      H3594   1.045       .  S
C3587      C3588   1.394   1_565  A
C3588      H3592   1.082       .  S
C3595      C3600   1.386       .  A
C3595      C3596   1.398       .  A
C3595      N3601   1.342       .  A
C3596      C3597   1.398       .  A
C3596      H3607   1.083       .  S
C3597      C3606   1.367       .  A
C3597      C3598   1.385       .  A
C3598      C3599   1.404       .  A
C3598      N3604   1.348       .  A
C3599      C3600   1.405       .  A
C3599      H3608   1.082       .  S
C3600      C3603   1.376       .  A
N3601      C3602   1.353       .  A
N3601      H3611   1.045       .  S
C3602      C3603   1.395       .  A
C3603      H3609   1.082       .  S
N3604      C3605   1.355       .  A
N3604      H3612   1.044       .  S
C3605      C3606   1.392       .  A
C3606      H3610   1.083       .  S
C3613      C3618   1.385       .  A
C3613      C3614   1.404       .  A
C3613      N3619   1.344       .  A
C3614      C3615   1.403       .  A
C3614      H3625   1.082       .  S
C3615      C3624   1.378       .  A
C3615      C3616   1.385       .  A
C3616      C3617   1.402       .  A
C3616      N3622   1.344       .  A
C3617      C3618   1.402       .  A
C3617      H3626   1.082       .  S
C3618      C3621   1.377       .  A
N3619      C3620   1.355       .  A
N3619      H3629   1.045       .  S
C3620      C3621   1.392       .  A
C3621      H3627   1.082       .  S
N3622      C3623   1.354       .  A
N3622      H3630   1.045       .  S
C3623      C3624   1.395       .  A
C3624      H3628   1.082       .  S
C3631      C3636   1.384       .  A
C3631      C3632   1.407       .  A
C3631      N3637   1.344       .  A
C3632      C3633   1.405       .  A
C3632      H3643   1.082       .  S
C3633      C3642   1.385       .  A
C3633      C3634   1.385       .  A
C3634      C3635   1.403       .  A
C3634      N3640   1.342       .  A
C3635      C3636   1.401       .  A
C3635      H3644   1.082       .  S
C3636      C3639   1.380       .  A
N3637      C3638   1.357       .  A
N3637      H3647   1.045       .  S
C3638      C3639   1.394       .  A
C3639      H3645   1.082       .  S
N3640      C3641   1.357       .  A
N3640      H3648   1.044   1_565  S
C3641      C3642   1.397       .  A
C3642      H3646   1.082       .  S
C3649      C3654   1.384       .  A
C3649      C3650   1.405       .  A
C3649      N3655   1.341       .  A
C3650      C3651   1.402       .  A
C3650      H3661   1.082       .  S
C3651      C3660   1.383       .  A
C3651      C3652   1.384       .  A
C3652      C3653   1.404       .  A
C3652      N3658   1.340       .  A
C3653      C3654   1.401       .  A
C3653      H3662   1.082       .  S
C3654      C3657   1.382       .  A
N3655      C3656   1.356       .  A
N3655      H3665   1.045       .  S
C3656      C3657   1.394       .  A
C3657      H3663   1.082       .  S
N3658      C3659   1.356       .  A
N3658      H3666   1.045       .  S
C3659      C3660   1.395       .  A
C3660      H3664   1.082       .  S
C3667      C3672   1.385       .  A
C3667      C3668   1.406       .  A
C3667      N3673   1.343       .  A
C3668      C3669   1.403       .  A
C3668      H3679   1.082       .  S
C3669      C3678   1.383       .  A
C3669      C3670   1.384       .  A
C3670      C3671   1.401       .  A
C3670      N3676   1.339       .  A
C3671      C3672   1.399       .  A
C3671      H3680   1.082       .  S
C3672      C3675   1.377       .  A
N3673      C3674   1.356       .  A
N3673      H3683   1.045       .  S
C3674      C3675   1.393       .  A
C3675      H3681   1.082       .  S
N3676      C3677   1.355       .  A
N3676      H3684   1.045       .  S
C3677      C3678   1.396       .  A
C3678      H3682   1.082       .  S
C3685      C3690   1.384       .  A
C3685      C3686   1.407       .  A
C3685      N3691   1.348       .  A
C3686      C3687   1.407       .  A
C3686      H3697   1.082       .  S
C3687      C3696   1.383       .  A
C3687      C3688   1.385       .  A
C3688      C3689   1.402       .  A
C3688      N3694   1.343       .  A
C3689      C3690   1.401       .  A
C3689      H3698   1.082       .  S
C3690      C3693   1.375       .  A
N3691      C3692   1.357       .  A
N3691      H3701   1.045       .  S
C3692      C3693   1.393       .  A
C3693      H3699   1.083       .  S
N3694      C3695   1.354       .  A
N3694      H3702   1.045       .  S
C3695      C3696   1.396       .  A
C3696      H3700   1.082       .  S
C3703      C3708   1.385       .  A
C3703      C3704   1.403       .  A
C3703      N3709   1.347       .  A
C3704      C3705   1.404       .  A
C3704      H3715   1.082       .  S
C3705      C3714   1.375       .  A
C3705      C3706   1.386       .  A
C3706      C3707   1.400       .  A
C3706      N3712   1.343       .  A
C3707      C3708   1.401       .  A
C3707      H3716   1.082       .  S
C3708      C3711   1.372       .  A
N3709      C3710   1.356       .  A
N3709      H3719   1.045       .  S
C3710      C3711   1.394       .  A
C3711      H3717   1.083       .  S
N3712      C3713   1.353       .  A
N3712      H3720   1.045       .  S
C3713      C3714   1.395       .  A
C3714      H3718   1.083       .  S
C3721      C3726   1.384       .  A
C3721      C3722   1.407       .  A
C3721      N3727   1.343       .  A
C3722      C3723   1.404       .  A
C3722      H3733   1.082       .  S
C3723      C3732   1.385       .  A
C3723      C3724   1.384       .  A
C3724      C3725   1.407       .  A
C3724      N3730   1.343       .  A
C3725      C3726   1.404       .  A
C3725      H3734   1.082       .  S
C3726      C3729   1.385       .  A
N3727      C3728   1.358       .  A
N3727      H3737   1.045       .  S
C3728      C3729   1.397       .  A
C3729      H3735   1.082       .  S
N3730      C3731   1.357       .  A
N3730      H3738   1.045       .  S
C3731      C3732   1.397       .  A
C3732      H3736   1.082       .  S
C3739      C3744   1.384       .  A
C3739      C3740   1.409       .  A
C3739      N3745   1.347       .  A
C3740      C3741   1.408       .  A
C3740      H3751   1.082       .  S
C3741      C3750   1.386       .  A
C3741      C3742   1.384       .  A
C3742      C3743   1.402       .  A
C3742      N3748   1.341       .  A
C3743      C3744   1.400       .  A
C3743      H3752   1.082       .  S
C3744      C3747   1.377       .  A
N3745      C3746   1.358       .  A
N3745      H3755   1.045       .  S
C3746      C3747   1.392       .  A
C3747      H3753   1.082       .  S
N3748      C3749   1.355       .  A
N3748      H3756   1.045       .  S
C3749      C3750   1.398       .  A
C3750      H3754   1.082       .  S
C3757      C3762   1.385       .  A
C3757      C3758   1.401       .  A
C3757      N3763   1.342       .  A
C3758      C3759   1.400       .  A
C3758      H3769   1.082       .  S
C3759      C3768   1.375       .  A
C3759      C3760   1.385       .  A
C3760      C3761   1.404       .  A
C3760      N3766   1.344       .  A
C3761      C3762   1.403       .  A
C3761      H3770   1.082       .  S
C3762      C3765   1.378       .  A
N3763      C3764   1.354       .  A
N3763      H3773   1.045       .  S
C3764      C3765   1.396       .  A
C3765      H3771   1.082       .  S
N3766      C3767   1.355       .  A
N3766      H3774   1.045       .  S
C3767      C3768   1.394       .  A
C3768      H3772   1.082       .  S
C3775      C3780   1.385       .  A
C3775      C3776   1.405       .  A
C3775      N3781   1.347       .  A
C3776      C3777   1.405       .  A
C3776      H3787   1.082       .  S
C3777      C3786   1.379       .  A
C3777      C3778   1.384       .  A
C3778      C3779   1.405       .  A
C3778      N3784   1.347       .  A
C3779      C3780   1.405       .  A
C3779      H3788   1.082       .  S
C3780      C3783   1.379       .  A
N3781      C3782   1.355       .  A
N3781      H3791   1.045       .  S
C3782      C3783   1.395       .  A
C3783      H3789   1.083       .  S
N3784      C3785   1.356       .  A
N3784      H3792   1.045       .  S
C3785      C3786   1.396       .  A
C3786      H3790   1.082       .  S
C3793      C3798   1.385       .  A
C3793      C3794   1.401       .  A
C3793      N3799   1.339       .  A
C3794      C3795   1.399       .  A
C3794      H3805   1.082       .  S
C3795      C3804   1.378       .  A
C3795      C3796   1.385       .  A
C3796      C3797   1.402       .  A
C3796      N3802   1.339       .  A
C3797      C3798   1.400       .  A
C3797      H3806   1.082       .  S
C3798      C3801   1.378       .  A
N3799      C3800   1.354       .  A
N3799      H3809   1.045       .  S
C3800      C3801   1.393       .  A
C3801      H3807   1.082       .  S
N3802      C3803   1.355       .  A
N3802      H3810   1.045       .  S
C3803      C3804   1.392       .  A
C3804      H3808   1.082       .  S
C3811      C3816   1.384       .  A
C3811      C3812   1.403       .  A
C3811      N3817   1.340       .  A
C3812      C3813   1.401       .  A
C3812      H3823   1.082       .  S
C3813      C3822   1.380       .  A
C3813      C3814   1.384       .  A
C3814      C3815   1.407       .  A
C3814      N3820   1.344       .  A
C3815      C3816   1.405       .  A
C3815      H3824   1.082       .  S
C3816      C3819   1.384       .  A
N3817      C3818   1.355       .  A
N3817      H3827   1.045       .  S
C3818      C3819   1.396       .  A
C3819      H3825   1.082       .  S
N3820      C3821   1.357       .  A
N3820      H3828   1.045       .  S
C3821      C3822   1.393       .  A
C3822      H3826   1.082       .  S
C3829      C3834   1.386       .  A
C3829      C3830   1.398       .  A
C3829      N3835   1.342       .  A
C3830      C3831   1.399       .  A
C3830      H3841   1.083       .  S
C3831      C3840   1.368       .  A
C3831      C3832   1.385       .  A
C3832      C3833   1.403       .  A
C3832      N3838   1.346       .  A
C3833      C3834   1.404       .  A
C3833      H3842   1.082       .  S
C3834      C3837   1.375       .  A
N3835      C3836   1.352       .  A
N3835      H3845   1.045       .  S
C3836      C3837   1.395       .  A
C3837      H3843   1.082       .  S
N3838      C3839   1.355       .  A
N3838      H3846   1.045       .  S
C3839      C3840   1.392       .  A
C3840      H3844   1.083       .  S
C3847      C3852   1.384       .  A
C3847      C3848   1.406       .  A
C3847      N3853   1.343       .  A
C3848      C3849   1.404       .  A
C3848      H3859   1.082       .  S
C3849      C3858   1.382       .  A
C3849      C3850   1.384       .  A
C3850      C3851   1.406       .  A
C3850      N3856   1.344       .  A
C3851      C3852   1.404       .  A
C3851      H3860   1.082       .  S
C3852      C3855   1.383       .  A
N3853      C3854   1.357       .  A
N3853      H3863   1.045       .  S
C3854      C3855   1.396       .  A
C3855      H3861   1.082       .  S
N3856      C3857   1.356       .  A
N3856      H3864   1.045       .  S
C3857      C3858   1.396       .  A
C3858      H3862   1.082       .  S
C3865      C3870   1.385       .  A
C3865      C3866   1.399       .  A
C3865      N3871   1.337       .  A
C3866      C3867   1.397       .  A
C3866      H3877   1.083       .  S
C3867      C3876   1.375       .  A
C3867      C3868   1.385       .  A
C3868      C3869   1.409       .  A
C3868      N3874   1.346       .  A
C3869      C3870   1.407       .  A
C3869      H3878   1.082       .  S
C3870      C3873   1.387       .  A
N3871      C3872   1.353       .  A
N3871      H3881   1.045       .  S
C3872      C3873   1.397       .  A
C3873      H3879   1.082       .  S
N3874      C3875   1.358       .  A
N3874      H3882   1.045       .  S
C3875      C3876   1.390       .  A
C3876      H3880   1.082       .  S
C3883      C3888   1.384       .  A
C3883      C3884   1.408       .  A
C3883      N3889   1.344       .  A
C3884      C3885   1.405       .  A
C3884      H3895   1.082       .  S
C3885      C3894   1.386       .  A
C3885      C3886   1.384       .  A
C3886      C3887   1.404       .  A
C3886      N3892   1.341       .  A
C3887      C3888   1.401       .  A
C3887      H3896   1.082       .  S
C3888      C3891   1.380       .  A
N3889      C3890   1.357       .  A
N3889      H3899   1.045       .  S
C3890      C3891   1.394       .  A
C3891      H3897   1.082       .  S
N3892      C3893   1.356       .  A
N3892      H3900   1.045       .  S
C3893      C3894   1.396       .  A
C3894      H3898   1.082       .  S
C3901      C3906   1.385       .  A
C3901      C3902   1.403       .  A
C3901      N3907   1.343       .  A
C3902      C3903   1.402       .  A
C3902      H3913   1.082       .  S
C3903      C3912   1.378       .  A
C3903      C3904   1.385       .  A
C3904      C3905   1.403       .  A
C3904      N3910   1.343       .  A
C3905      C3906   1.403       .  A
C3905      H3914   1.082       .  S
C3906      C3909   1.379       .  A
N3907      C3908   1.355       .  A
N3907      H3917   1.045       .  S
C3908      C3909   1.395       .  A
C3909      H3915   1.082       .  S
N3910      C3911   1.355       .  A
N3910      H3918   1.045       .  S
C3911      C3912   1.395       .  A
C3912      H3916   1.082       .  S
C3919      C3924   1.385       .  A
C3919      C3920   1.403       .  A
C3919      N3925   1.339       .  A
C3920      C3921   1.400       .  A
C3920      H3931   1.082       .  S
C3921      C3930   1.380       .  A
C3921      C3922   1.385       .  A
C3922      C3923   1.402       .  A
C3922      N3928   1.339       .  A
C3923      C3924   1.399       .  A
C3923      H3932   1.082       .  S
C3924      C3927   1.379       .  A
N3925      C3926   1.355       .  A
N3925      H3935   1.045       .  S
C3926      C3927   1.393       .  A
C3927      H3933   1.082       .  S
N3928      C3929   1.354       .  A
N3928      H3936   1.045       .  S
C3929      C3930   1.393       .  A
C3930      H3934   1.082       .  S
C3937      C3942   1.384       .  A
C3937      C3938   1.408       .  A
C3937      N3943   1.345       .  A
C3938      C3939   1.406       .  A
C3938      H3949   1.082       .  S
C3939      C3948   1.385       .  A
C3939      C3940   1.384       .  A
C3940      C3941   1.406       .  A
C3940      N3946   1.344       .  A
C3941      C3942   1.404       .  A
C3941      H3950   1.082       .  S
C3942      C3945   1.383       .  A
N3943      C3944   1.357       .  A
N3943      H3953   1.045       .  S
C3944      C3945   1.396       .  A
C3945      H3951   1.082       .  S
N3946      C3947   1.358       .  A
N3946      H3954   1.045       .  S
C3947      C3948   1.398       .  A
C3948      H3952   1.082       .  S
C3955      C3960   1.385       .  A
C3955      C3956   1.402       .  A
C3955      N3961   1.345       .  A
C3956      C3957   1.402       .  A
C3956      H3967   1.082       .  S
C3957      C3966   1.374       .  A
C3957      C3958   1.385       .  A
C3958      C3959   1.405       .  A
C3958      N3964   1.348       .  A
C3959      C3960   1.406       .  A
C3959      H3968   1.082       .  S
C3960      C3963   1.378       .  A
N3961      C3962   1.355       .  A
N3961      H3971   1.045       .  S
C3962      C3963   1.397       .  A
C3963      H3969   1.082       .  S
N3964      C3965   1.355       .  A
N3964      H3972   1.044       .  S
C3965      C3966   1.392       .  A
C3966      H3970   1.083       .  S
C3973      C3978   1.384       .  A
C3973      C3974   1.400       .  A
C3973      N3979   1.338       .  A
C3974      C3975   1.398       .  A
C3974      H3985   1.082       .  S
C3975      C3984   1.376       .  A
C3975      C3976   1.384       .  A
C3976      C3977   1.408       .  A
C3976      N3982   1.345       .  A
C3977      C3978   1.406       .  A
C3977      H3986   1.082       .  S
C3978      C3981   1.386       .  A
N3979      C3980   1.354       .  A
N3979      H3989   1.045       .  S
C3980      C3981   1.398       .  A
C3981      H3987   1.082       .  S
N3982      C3983   1.357       .  A
N3982      H3990   1.045       .  S
C3983      C3984   1.392       .  A
C3984      H3988   1.082       .  S
C3991      C3996   1.384       .  A
C3991      C3992   1.406       .  A
C3991      N3997   1.344       .  A
C3992      C3993   1.404       .  A
C3992      H4003   1.082       .  S
C3993      C4002   1.382       .  A
C3993      C3994   1.384       .  A
C3994      C3995   1.408       .  A
C3994      N4000   1.346       .  A
C3995      C3996   1.407       .  A
C3995      H4004   1.082       .  S
C3996      C3999   1.385       .  A
N3997      C3998   1.357       .  A
N3997      H4007   1.045       .  S
C3998      C3999   1.398       .  A
C3999      H4005   1.082       .  S
N4000      C4001   1.358       .  A
N4000      H4008   1.045       .  S
C4001      C4002   1.396       .  A
C4002      H4006   1.082       .  S
C4009      C4014   1.384       .  A
C4009      C4010   1.403       .  A
C4009      N4015   1.345       .  A
C4010      C4011   1.403       .  A
C4010      H4021   1.082       .  S
C4011      C4020   1.375       .  A
C4011      C4012   1.385       .  A
C4012      C4013   1.409       .  A
C4012      N4018   1.351       .  A
C4013      C4014   1.410       .  A
C4013      H4022   1.082       .  S
C4014      C4017   1.384       .  A
N4015      C4016   1.356       .  A
N4015      H4025   1.045       .  S
C4016      C4017   1.398       .  A
C4017      H4023   1.082       .  S
N4018      C4019   1.357       .  A
N4018      H4026   1.044       .  S
C4019      C4020   1.395       .  A
C4020      H4024   1.083       .  S
C4027      C4032   1.384       .  A
C4027      C4028   1.405       .  A
C4027      N4033   1.342       .  A
C4028      C4029   1.403       .  A
C4028      H4039   1.082       .  S
C4029      C4038   1.381       .  A
C4029      C4030   1.384       .  A
C4030      C4031   1.405       .  A
C4030      N4036   1.343       .  A
C4031      C4032   1.403       .  A
C4031      H4040   1.082       .  S
C4032      C4035   1.382       .  A
N4033      C4034   1.357       .  A
N4033      H4043   1.045       .  S
C4034      C4035   1.395       .  A
C4035      H4041   1.082       .  S
N4036      C4037   1.356       .  A
N4036      H4044   1.045       .  S
C4037      C4038   1.395       .  A
C4038      H4042   1.082       .  S
C4045      C4050   1.385       .  A
C4045      C4046   1.403       .  A
C4045      N4051   1.347       .  A
C4046      C4047   1.404       .  A
C4046      H4057   1.082       .  S
C4047      C4056   1.375   1_554  A
C4047      C4048   1.384   1_554  A
C4048      C4049   1.406       .  A
C4048      N4054   1.350       .  A
C4049      C4050   1.407   1_556  A
C4049      H4058   1.082       .  S
C4050      C4053   1.379   1_554  A
N4051      C4052   1.355   1_554  A
N4051      H4061   1.045       .  S
C4052      C4053   1.398       .  A
C4053      H4059   1.082       .  S
N4054      C4055   1.357       .  A
N4054      H4062   1.044       .  S
C4055      C4056   1.396       .  A
C4056      H4060   1.083       .  S
C4063      C4068   1.385       .  A
C4063      C4064   1.409       .  A
C4063      N4069   1.351       .  A
C4064      C4065   1.410       .  A
C4064      H4075   1.082       .  S
C4065      C4074   1.384       .  A
C4065      C4066   1.385       .  A
C4066      C4067   1.401       .  A
C4066      N4072   1.344       .  A
C4067      C4068   1.401       .  A
C4067      H4076   1.082       .  S
C4068      C4071   1.373       .  A
N4069      C4070   1.357       .  A
N4069      H4079   1.044       .  S
C4070      C4071   1.392       .  A
C4071      H4077   1.083       .  S
N4072      C4073   1.354       .  A
N4072      H4080   1.045       .  S
C4073      C4074   1.399       .  A
C4074      H4078   1.082       .  S
C4081      C4086   1.385       .  A
C4081      C4082   1.402       .  A
C4081      N4087   1.343       .  A
C4082      C4083   1.401       .  A
C4082      H4093   1.082       .  S
C4083      C4092   1.375       .  A
C4083      C4084   1.385       .  A
C4084      C4085   1.404       .  A
C4084      N4090   1.346       .  A
C4085      C4086   1.404       .  A
C4085      H4094   1.082       .  S
C4086      C4089   1.379       .  A
N4087      C4088   1.355       .  A
N4087      H4097   1.045       .  S
C4088      C4089   1.396       .  A
C4089      H4095   1.082       .  S
N4090      C4091   1.355       .  A
N4090      H4098   1.045       .  S
C4091      C4092   1.395       .  A
C4092      H4096   1.083       .  S
C4099      C4104   1.385       .  A
C4099      C4100   1.402       .  A
C4099      N4105   1.340       .  A
C4100      C4101   1.400       .  A
C4100      H4111   1.082       .  S
C4101      C4110   1.378       .  A
C4101      C4102   1.384       .  A
C4102      C4103   1.407       .  A
C4102      N4108   1.344       .  A
C4103      C4104   1.405       .  A
C4103      H4112   1.082       .  S
C4104      C4107   1.385       .  A
N4105      C4106   1.353       .  A
N4105      H4115   1.045       .  S
C4106      C4107   1.395       .  A
C4107      H4113   1.082       .  S
N4108      C4109   1.358       .  A
N4108      H4116   1.045       .  S
C4109      C4110   1.394       .  A
C4110      H4114   1.082       .  S
C4117      C4122   1.385       .  A
C4117      C4118   1.401       .  A
C4117      N4123   1.340       .  A
C4118      C4119   1.399       .  A
C4118      H4129   1.082       .  S
C4119      C4128   1.378       .  A
C4119      C4120   1.384       .  A
C4120      C4121   1.405       .  A
C4120      N4126   1.342       .  A
C4121      C4122   1.403       .  A
C4121      H4130   1.082       .  S
C4122      C4125   1.380       .  A
N4123      C4124   1.354       .  A
N4123      H4133   1.045       .  S
C4124      C4125   1.395       .  A
C4125      H4131   1.082       .  S
N4126      C4127   1.357       .  A
N4126      H4134   1.045       .  S
C4127      C4128   1.392       .  A
C4128      H4132   1.082       .  S
C4135      C4140   1.385       .  A
C4135      C4136   1.406       .  A
C4135      N4141   1.347       .  A
C4136      C4137   1.406       .  A
C4136      H4147   1.082       .  S
C4137      C4146   1.380       .  A
C4137      C4138   1.385       .  A
C4138      C4139   1.403       .  A
C4138      N4144   1.344       .  A
C4139      C4140   1.403       .  A
C4139      H4148   1.082       .  S
C4140      C4143   1.376       .  A
N4141      C4142   1.356       .  A
N4141      H4151   1.045       .  S
C4142      C4143   1.395       .  A
C4143      H4149   1.082       .  S
N4144      C4145   1.355       .  A
N4144      H4152   1.045       .  S
C4145      C4146   1.397       .  A
C4146      H4150   1.082       .  S
C4153      C4158   1.385       .  A
C4153      C4154   1.403       .  A
C4153      N4159   1.344       .  A
C4154      C4155   1.403       .  A
C4154      H4165   1.082       .  S
C4155      C4164   1.376       .  A
C4155      C4156   1.385       .  A
C4156      C4157   1.405       .  A
C4156      N4162   1.346       .  A
C4157      C4158   1.405       .  A
C4157      H4166   1.082       .  S
C4158      C4161   1.381       .  A
N4159      C4160   1.355       .  A
N4159      H4169   1.045       .  S
C4160      C4161   1.395       .  A
C4161      H4167   1.082       .  S
N4162      C4163   1.355       .  A
N4162      H4170   1.045       .  S
C4163      C4164   1.395       .  A
C4164      H4168   1.083       .  S
C4171      C4176   1.385       .  A
C4171      C4172   1.406       .  A
C4171      N4177   1.343       .  A
C4172      C4173   1.403       .  A
C4172      H4183   1.082       .  S
C4173      C4182   1.383       .  A
C4173      C4174   1.384       .  A
C4174      C4175   1.402       .  A
C4174      N4180   1.339       .  A
C4175      C4176   1.400       .  A
C4175      H4184   1.083       .  S
C4176      C4179   1.377       .  A
N4177      C4178   1.355       .  A
N4177      H4187   1.045       .  S
C4178      C4179   1.392       .  A
C4179      H4185   1.083       .  S
N4180      C4181   1.355       .  A
N4180      H4188   1.045       .  S
C4181      C4182   1.395       .  A
C4182      H4186   1.082       .  S
C4189      C4194   1.385       .  A
C4189      C4190   1.403       .  A
C4189      N4195   1.346       .  A
C4190      C4191   1.403       .  A
C4190      H4201   1.082       .  S
C4191      C4200   1.375       .  A
C4191      C4192   1.385       .  A
C4192      C4193   1.403       .  A
C4192      N4198   1.346       .  A
C4193      C4194   1.403       .  A
C4193      H4202   1.082       .  S
C4194      C4197   1.375       .  A
N4195      C4196   1.355       .  A
N4195      H4205   1.045       .  S
C4196      C4197   1.395       .  A
C4197      H4203   1.082       .  S
N4198      C4199   1.355       .  A
N4198      H4206   1.045       .  S
C4199      C4200   1.395       .  A
C4200      H4204   1.083       .  S
C4207      C4212   1.385       .  A
C4207      C4208   1.402   1_655  A
C4207      N4213   1.346       .  A
C4208      C4209   1.403       .  A
C4208      H4219   1.082       .  S
C4209      C4218   1.375       .  A
C4209      C4210   1.385       .  A
C4210      C4211   1.405   1_455  A
C4210      N4216   1.348       .  A
C4211      C4212   1.406       .  A
C4211      H4220   1.082       .  S
C4212      C4215   1.377       .  A
N4213      C4214   1.355       .  A
N4213      H4223   1.045   1_655  S
C4214      C4215   1.397       .  A
C4215      H4221   1.083       .  S
N4216      C4217   1.356       .  A
N4216      H4224   1.045   1_455  S
C4217      C4218   1.396       .  A
C4218      H4222   1.082       .  S
C4225      C4230   1.385       .  A
C4225      C4226   1.402       .  A
C4225      N4231   1.344       .  A
C4226      C4227   1.402       .  A
C4226      H4237   1.082       .  S
C4227      C4236   1.375       .  A
C4227      C4228   1.385       .  A
C4228      C4229   1.404       .  A
C4228      N4234   1.346       .  A
C4229      C4230   1.405       .  A
C4229      H4238   1.082       .  S
C4230      C4233   1.378       .  A
N4231      C4232   1.355       .  A
N4231      H4241   1.045       .  S
C4232      C4233   1.396       .  A
C4233      H4239   1.082       .  S
N4234      C4235   1.356       .  A
N4234      H4242   1.045       .  S
C4235      C4236   1.394       .  A
C4236      H4240   1.082       .  S
C4243      C4248   1.384       .  A
C4243      C4244   1.409       .  A
C4243      N4249   1.346       .  A
C4244      C4245   1.408       .  A
C4244      H4255   1.082       .  S
C4245      C4254   1.388       .  A
C4245      C4246   1.384       .  A
C4246      C4247   1.403       .  A
C4246      N4252   1.340       .  A
C4247      C4248   1.400       .  A
C4247      H4256   1.082       .  S
C4248      C4251   1.379       .  A
N4249      C4250   1.358       .  A
N4249      H4259   1.045       .  S
C4250      C4251   1.393       .  A
C4251      H4257   1.082       .  S
N4252      C4253   1.355       .  A
N4252      H4260   1.045       .  S
C4253      C4254   1.399       .  A
C4254      H4258   1.082       .  S
C4261      C4266   1.385       .  A
C4261      C4262   1.403       .  A
C4261      N4267   1.341       .  A
C4262      C4263   1.402       .  A
C4262      H4273   1.082       .  S
C4263      C4272   1.379       .  A
C4263      C4264   1.385       .  A
C4264      C4265   1.401       .  A
C4264      N4270   1.340       .  A
C4265      C4266   1.399       .  A
C4265      H4274   1.082       .  S
C4266      C4269   1.376       .  A
N4267      C4268   1.355       .  A
N4267      H4277   1.045       .  S
C4268      C4269   1.393       .  A
C4269      H4275   1.082       .  S
N4270      C4271   1.354       .  A
N4270      H4278   1.045       .  S
C4271      C4272   1.394       .  A
C4272      H4276   1.082       .  S
C4279      C4284   1.384       .  A
C4279      C4280   1.406       .  A
C4279      N4285   1.348       .  A
C4280      C4281   1.406       .  A
C4280      H4291   1.082       .  S
C4281      C4290   1.379       .  A
C4281      C4282   1.384       .  A
C4282      C4283   1.407       .  A
C4282      N4288   1.350       .  A
C4283      C4284   1.408       .  A
C4283      H4292   1.082       .  S
C4284      C4287   1.382       .  A
N4285      C4286   1.357       .  A
N4285      H4295   1.045       .  S
C4286      C4287   1.398       .  A
C4287      H4293   1.082       .  S
N4288      C4289   1.357       .  A
N4288      H4296   1.044       .  S
C4289      C4290   1.398       .  A
C4290      H4294   1.082       .  S
C4297      C4302   1.384       .  A
C4297      C4298   1.406       .  A
C4297      N4303   1.342       .  A
C4298      C4299   1.403       .  A
C4298      H4309   1.082       .  S
C4299      C4308   1.382       .  A
C4299      C4300   1.384       .  A
C4300      C4301   1.404       .  A
C4300      N4306   1.342       .  A
C4301      C4302   1.402       .  A
C4301      H4310   1.082       .  S
C4302      C4305   1.381       .  A
N4303      C4304   1.356       .  A
N4303      H4313   1.045       .  S
C4304      C4305   1.393       .  A
C4305      H4311   1.082       .  S
N4306      C4307   1.355       .  A
N4306      H4314   1.045       .  S
C4307      C4308   1.396       .  A
C4308      H4312   1.082       .  S
C4315      C4320   1.385       .  A
C4315      C4316   1.403       .  A
C4315      N4321   1.346       .  A
C4316      C4317   1.403       .  A
C4316      H4327   1.082       .  S
C4317      C4326   1.377       .  A
C4317      C4318   1.384       .  A
C4318      C4319   1.405       .  A
C4318      N4324   1.347       .  A
C4319      C4320   1.406       .  A
C4319      H4328   1.082       .  S
C4320      C4323   1.379       .  A
N4321      C4322   1.354       .  A
N4321      H4331   1.045       .  S
C4322      C4323   1.396       .  A
C4323      H4329   1.082       .  S
N4324      C4325   1.357       .  A
N4324      H4332   1.045       .  S
C4325      C4326   1.396       .  A
C4326      H4330   1.082       .  S
C4333      C4338   1.384       .  A
C4333      C4334   1.400       .  A
C4333      N4339   1.339       .  A
C4334      C4335   1.398       .  A
C4334      H4345   1.082       .  S
C4335      C4344   1.375       .  A
C4335      C4336   1.384       .  A
C4336      C4337   1.409       .  A
C4336      N4342   1.346       .  A
C4337      C4338   1.407       .  A
C4337      H4346   1.082       .  S
C4338      C4341   1.386       .  A
N4339      C4340   1.353       .  A
N4339      H4349   1.045       .  S
C4340      C4341   1.398       .  A
C4341      H4347   1.082       .  S
N4342      C4343   1.358       .  A
N4342      H4350   1.045       .  S
C4343      C4344   1.392       .  A
C4344      H4348   1.082       .  S
C4351      C4356   1.384       .  A
C4351      C4352   1.406       .  A
C4351      N4357   1.345       .  A
C4352      C4353   1.405       .  A
C4352      H4363   1.082       .  S
C4353      C4362   1.381       .  A
C4353      C4354   1.385       .  A
C4354      C4355   1.401       .  A
C4354      N4360   1.341       .  A
C4355      C4356   1.400       .  A
C4355      H4364   1.082       .  S
C4356      C4359   1.376       .  A
N4357      C4358   1.357       .  A
N4357      H4367   1.045       .  S
C4358      C4359   1.393       .  A
C4359      H4365   1.082       .  S
N4360      C4361   1.355       .  A
N4360      H4368   1.045       .  S
C4361      C4362   1.396       .  A
C4362      H4366   1.082       .  S
C4369      C4374   1.384   1_655  A
C4369      C4370   1.407       .  A
C4369      N4375   1.346       .  A
C4370      C4371   1.406   1_655  A
C4370      H4381   1.082       .  S
C4371      C4380   1.382       .  A
C4371      C4372   1.384       .  A
C4372      C4373   1.406       .  A
C4372      N4378   1.346       .  A
C4373      C4374   1.405       .  A
C4373      H4382   1.082       .  S
C4374      C4377   1.382       .  A
N4375      C4376   1.357       .  A
N4375      H4385   1.045       .  S
C4376      C4377   1.396   1_655  A
C4377      H4383   1.082       .  S
N4378      C4379   1.357       .  A
N4378      H4386   1.045       .  S
C4379      C4380   1.397       .  A
C4380      H4384   1.082   1_455  S
C4387      C4392   1.385       .  A
C4387      C4388   1.402       .  A
C4387      N4393   1.342       .  A
C4388      C4389   1.401       .  A
C4388      H4399   1.082   1_655  S
C4389      C4398   1.375       .  A
C4389      C4390   1.385       .  A
C4390      C4391   1.403       .  A
C4390      N4396   1.344       .  A
C4391      C4392   1.403       .  A
C4391      H4400   1.082       .  S
C4392      C4395   1.377       .  A
N4393      C4394   1.355       .  A
N4393      H4403   1.045       .  S
C4394      C4395   1.394       .  A
C4395      H4401   1.083       .  S
N4396      C4397   1.354       .  A
N4396      H4404   1.045       .  S
C4397      C4398   1.393       .  A
C4398      H4402   1.083   1_655  S
C4405      C4410   1.386       .  A
C4405      C4406   1.401       .  A
C4405      N4411   1.344       .  A
C4406      C4407   1.402       .  A
C4406      H4417   1.082       .  S
C4407      C4416   1.373       .  A
C4407      C4408   1.385       .  A
C4408      C4409   1.401       .  A
C4408      N4414   1.344       .  A
C4409      C4410   1.402       .  A
C4409      H4418   1.082       .  S
C4410      C4413   1.372       .  A
N4411      C4412   1.353       .  A
N4411      H4421   1.045       .  S
C4412      C4413   1.394       .  A
C4413      H4419   1.083       .  S
N4414      C4415   1.354       .  A
N4414      H4422   1.045       .  S
C4415      C4416   1.394       .  A
C4416      H4420   1.083       .  S
C4423      C4428   1.384       .  A
C4423      C4424   1.404       .  A
C4423      N4429   1.348       .  A
C4424      C4425   1.405       .  A
C4424      H4435   1.082       .  S
C4425      C4434   1.375       .  A
C4425      C4426   1.384       .  A
C4426      C4427   1.410       .  A
C4426      N4432   1.353       .  A
C4427      C4428   1.411       .  A
C4427      H4436   1.082       .  S
C4428      C4431   1.383       .  A
N4429      C4430   1.356       .  A
N4429      H4439   1.045       .  S
C4430      C4431   1.400       .  A
C4431      H4437   1.082       .  S
N4432      C4433   1.359       .  A
N4432      H4440   1.044       .  S
C4433      C4434   1.397       .  A
C4434      H4438   1.083       .  S
C4441      C4446   1.384       .  A
C4441      C4442   1.406       .  A
C4441      N4447   1.343       .  A
C4442      C4443   1.404       .  A
C4442      H4453   1.082       .  S
C4443      C4452   1.384       .  A
C4443      C4444   1.384       .  A
C4444      C4445   1.404       .  A
C4444      N4450   1.341       .  A
C4445      C4446   1.402       .  A
C4445      H4454   1.082       .  S
C4446      C4449   1.382       .  A
N4447      C4448   1.356       .  A
N4447      H4457   1.045       .  S
C4448      C4449   1.395       .  A
C4449      H4455   1.082       .  S
N4450      C4451   1.356       .  A
N4450      H4458   1.045       .  S
C4451      C4452   1.396       .  A
C4452      H4456   1.082       .  S
C4459      C4464   1.384       .  A
C4459      C4460   1.407       .  A
C4459      N4465   1.348       .  A
C4460      C4461   1.407       .  A
C4460      H4471   1.082       .  S
C4461      C4470   1.382       .  A
C4461      C4462   1.384       .  A
C4462      C4463   1.404       .  A
C4462      N4468   1.344       .  A
C4463      C4464   1.403       .  A
C4463      H4472   1.082       .  S
C4464      C4467   1.377       .  A
N4465      C4466   1.356       .  A
N4465      H4475   1.044       .  S
C4466      C4467   1.395       .  A
C4467      H4473   1.082       .  S
N4468      C4469   1.356       .  A
N4468      H4476   1.045       .  S
C4469      C4470   1.396       .  A
C4470      H4474   1.082       .  S
C4477      C4482   1.385       .  A
C4477      C4478   1.404       .  A
C4477      N4483   1.341       .  A
C4478      C4479   1.402       .  A
C4478      H4489   1.082       .  S
C4479      C4488   1.381       .  A
C4479      C4480   1.385       .  A
C4480      C4481   1.401       .  A
C4480      N4486   1.338       .  A
C4481      C4482   1.399       .  A
C4481      H4490   1.082       .  S
C4482      C4485   1.377       .  A
N4483      C4484   1.355       .  A
N4483      H4493   1.045       .  S
C4484      C4485   1.392       .  A
C4485      H4491   1.082       .  S
N4486      C4487   1.355       .  A
N4486      H4494   1.045       .  S
C4487      C4488   1.394       .  A
C4488      H4492   1.082       .  S
C4495      C4500   1.384   1_455  A
C4495      C4496   1.406       .  A
C4495      N4501   1.349       .  A
C4496      C4497   1.407       .  A
C4496      H4507   1.082       .  S
C4497      C4506   1.379       .  A
C4497      C4498   1.385       .  A
C4498      C4499   1.404   1_455  A
C4498      N4504   1.347       .  A
C4499      C4500   1.405       .  A
C4499      H4508   1.082       .  S
C4500      C4503   1.376       .  A
N4501      C4502   1.357   1_455  A
N4501      H4511   1.044       .  S
C4502      C4503   1.397       .  A
C4503      H4509   1.082       .  S
N4504      C4505   1.356       .  A
N4504      H4512   1.045       .  S
C4505      C4506   1.397       .  A
C4506      H4510   1.082       .  S
C4513      C4518   1.384       .  A
C4513      C4514   1.403       .  A
C4513      N4519   1.343       .  A
C4514      C4515   1.402       .  A
C4514      H4525   1.082       .  S
C4515      C4524   1.379       .  A
C4515      C4516   1.384       .  A
C4516      C4517   1.406       .  A
C4516      N4522   1.345       .  A
C4517      C4518   1.405       .  A
C4517      H4526   1.082       .  S
C4518      C4521   1.382       .  A
N4519      C4520   1.355       .  A
N4519      H4529   1.045       .  S
C4520      C4521   1.397       .  A
C4521      H4527   1.082       .  S
N4522      C4523   1.357       .  A
N4522      H4530   1.045       .  S
C4523      C4524   1.394       .  A
C4524      H4528   1.082       .  S
C4531      C4536   1.384       .  A
C4531      C4532   1.402       .  A
C4531      N4537   1.341       .  A
C4532      C4533   1.401       .  A
C4532      H4543   1.082       .  S
C4533      C4542   1.377       .  A
C4533      C4534   1.384       .  A
C4534      C4535   1.409       .  A
C4534      N4540   1.348       .  A
C4535      C4536   1.408       .  A
C4535      H4544   1.082       .  S
C4536      C4539   1.386       .  A
N4537      C4538   1.356       .  A
N4537      H4547   1.045       .  S
C4538      C4539   1.398       .  A
C4539      H4545   1.082       .  S
N4540      C4541   1.358       .  A
N4540      H4548   1.045       .  S
C4541      C4542   1.395       .  A
C4542      H4546   1.082       .  S
C4549      C4554   1.384       .  A
C4549      C4550   1.403       .  A
C4549      N4555   1.341       .  A
C4550      C4551   1.401       .  A
C4550      H4561   1.082       .  S
C4551      C4560   1.378       .  A
C4551      C4552   1.384       .  A
C4552      C4553   1.407       .  A
C4552      N4558   1.346       .  A
C4553      C4554   1.406       .  A
C4553      H4562   1.082       .  S
C4554      C4557   1.385       .  A
N4555      C4556   1.355       .  A
N4555      H4565   1.045       .  S
C4556      C4557   1.396       .  A
C4557      H4563   1.082       .  S
N4558      C4559   1.357       .  A
N4558      H4566   1.045       .  S
C4559      C4560   1.394       .  A
C4560      H4564   1.082       .  S
C4567      C4572   1.384       .  A
C4567      C4568   1.405       .  A
C4567      N4573   1.343       .  A
C4568      C4569   1.403       .  A
C4568      H4579   1.082       .  S
C4569      C4578   1.382       .  A
C4569      C4570   1.384       .  A
C4570      C4571   1.406       .  A
C4570      N4576   1.344       .  A
C4571      C4572   1.404       .  A
C4571      H4580   1.082       .  S
C4572      C4575   1.383       .  A
N4573      C4574   1.356       .  A
N4573      H4583   1.045       .  S
C4574      C4575   1.396       .  A
C4575      H4581   1.082       .  S
N4576      C4577   1.357       .  A
N4576      H4584   1.045       .  S
C4577      C4578   1.395       .  A
C4578      H4582   1.082       .  S
C4585      C4590   1.384   1_556  A
C4585      C4586   1.411       .  A
C4585      N4591   1.349       .  A
C4586      C4587   1.410   1_556  A
C4586      H4597   1.082       .  S
C4587      C4596   1.390       .  A
C4587      C4588   1.384       .  A
C4588      C4589   1.401       .  A
C4588      N4594   1.340       .  A
C4589      C4590   1.399       .  A
C4589      H4598   1.082       .  S
C4590      C4593   1.377       .  A
N4591      C4592   1.359       .  A
N4591      H4601   1.044       .  S
C4592      C4593   1.394   1_556  A
C4593      H4599   1.082       .  S
N4594      C4595   1.355       .  A
N4594      H4602   1.045       .  S
C4595      C4596   1.401       .  A
C4596      H4600   1.082   1_554  S
C4603      C4608   1.384       .  A
C4603      C4604   1.406       .  A
C4603      N4609   1.345       .  A
C4604      C4605   1.404       .  A
C4604      H4615   1.082       .  S
C4605      C4614   1.382       .  A
C4605      C4606   1.384       .  A
C4606      C4607   1.407       .  A
C4606      N4612   1.345       .  A
C4607      C4608   1.406       .  A
C4607      H4616   1.082       .  S
C4608      C4611   1.384       .  A
N4609      C4610   1.355       .  A
N4609      H4619   1.045       .  S
C4610      C4611   1.397       .  A
C4611      H4617   1.082       .  S
N4612      C4613   1.358       .  A
N4612      H4620   1.045       .  S
C4613      C4614   1.395       .  A
C4614      H4618   1.082       .  S
C4621      C4626   1.385       .  A
C4621      C4622   1.400       .  A
C4621      N4627   1.342       .  A
C4622      C4623   1.399       .  A
C4622      H4633   1.082       .  S
C4623      C4632   1.373       .  A
C4623      C4624   1.385       .  A
C4624      C4625   1.403       .  A
C4624      N4630   1.344       .  A
C4625      C4626   1.403       .  A
C4625      H4634   1.082       .  S
C4626      C4629   1.377       .  A
N4627      C4628   1.353       .  A
N4627      H4637   1.045       .  S
C4628      C4629   1.396       .  A
C4629      H4635   1.082       .  S
N4630      C4631   1.355       .  A
N4630      H4638   1.045       .  S
C4631      C4632   1.392       .  A
C4632      H4636   1.082       .  S
C4639      C4644   1.384   1_554  A
C4639      C4640   1.404       .  A
C4639      N4645   1.346       .  A
C4640      C4641   1.404       .  A
C4640      H4651   1.082       .  S
C4641      C4650   1.379       .  A
C4641      C4642   1.384       .  A
C4642      C4643   1.409   1_554  A
C4642      N4648   1.350       .  A
C4643      C4644   1.409       .  A
C4643      H4652   1.082       .  S
C4644      C4647   1.384       .  A
N4645      C4646   1.356   1_554  A
N4645      H4655   1.045       .  S
C4646      C4647   1.399       .  A
C4647      H4653   1.082       .  S
N4648      C4649   1.359       .  A
N4648      H4656   1.044       .  S
C4649      C4650   1.396       .  A
C4650      H4654   1.082       .  S
C4657      C4662   1.384       .  A
C4657      C4658   1.407       .  A
C4657      N4663   1.346       .  A
C4658      C4659   1.406       .  A
C4658      H4669   1.082       .  S
C4659      C4668   1.383       .  A
C4659      C4660   1.385       .  A
C4660      C4661   1.404       .  A
C4660      N4666   1.343       .  A
C4661      C4662   1.402       .  A
C4661      H4670   1.082       .  S
C4662      C4665   1.379       .  A
N4663      C4664   1.356       .  A
N4663      H4673   1.045       .  S
C4664      C4665   1.394       .  A
C4665      H4671   1.082       .  S
N4666      C4667   1.355       .  A
N4666      H4674   1.045       .  S
C4667      C4668   1.396       .  A
C4668      H4672   1.082       .  S
C4675      C4680   1.385       .  A
C4675      C4676   1.401       .  A
C4675      N4681   1.342       .  A
C4676      C4677   1.400       .  A
C4676      H4687   1.082       .  S
C4677      C4686   1.374       .  A
C4677      C4678   1.385       .  A
C4678      C4679   1.404       .  A
C4678      N4684   1.345       .  A
C4679      C4680   1.404       .  A
C4679      H4688   1.082       .  S
C4680      C4683   1.379       .  A
N4681      C4682   1.354       .  A
N4681      H4691   1.045       .  S
C4682      C4683   1.395       .  A
C4683      H4689   1.082       .  S
N4684      C4685   1.355       .  A
N4684      H4692   1.045       .  S
C4685      C4686   1.394       .  A
C4686      H4690   1.083       .  S
C4693      C4698   1.384       .  A
C4693      C4694   1.405   1_455  A
C4693      N4699   1.347       .  A
C4694      C4695   1.405       .  A
C4694      H4705   1.082       .  S
C4695      C4704   1.379       .  A
C4695      C4696   1.383   1_655  A
C4696      C4697   1.411       .  A
C4696      N4702   1.352       .  A
C4697      C4698   1.411       .  A
C4697      H4706   1.082       .  S
C4698      C4701   1.386       .  A
N4699      C4700   1.356       .  A
N4699      H4709   1.045       .  S
C4700      C4701   1.401       .  A
C4701      H4707   1.082       .  S
N4702      C4703   1.360   1_455  A
N4702      H4710   1.044       .  S
C4703      C4704   1.397       .  A
C4704      H4708   1.082       .  S
C4711      C4716   1.384       .  A
C4711      C4712   1.405       .  A
C4711      N4717   1.347       .  A
C4712      C4713   1.405       .  A
C4712      H4723   1.082       .  S
C4713      C4722   1.379       .  A
C4713      C4714   1.385       .  A
C4714      C4715   1.403       .  A
C4714      N4720   1.345       .  A
C4715      C4716   1.403       .  A
C4715      H4724   1.082       .  S
C4716      C4719   1.376       .  A
N4717      C4718   1.356       .  A
N4717      H4727   1.045       .  S
C4718      C4719   1.396       .  A
C4719      H4725   1.082       .  S
N4720      C4721   1.355       .  A
N4720      H4728   1.045       .  S
C4721      C4722   1.396       .  A
C4722      H4726   1.082       .  S
C4729      C4734   1.385       .  A
C4729      C4730   1.401       .  A
C4729      N4735   1.344       .  A
C4730      C4731   1.402       .  A
C4730      H4741   1.082       .  S
C4731      C4740   1.373       .  A
C4731      C4732   1.385       .  A
C4732      C4733   1.406       .  A
C4732      N4738   1.349       .  A
C4733      C4734   1.407       .  A
C4733      H4742   1.082       .  S
C4734      C4737   1.379       .  A
N4735      C4736   1.354       .  A
N4735      H4745   1.045       .  S
C4736      C4737   1.397       .  A
C4737      H4743   1.082       .  S
N4738      C4739   1.357       .  A
N4738      H4746   1.044       .  S
C4739      C4740   1.394       .  A
C4740      H4744   1.083       .  S
C4747      C4752   1.385       .  A
C4747      C4748   1.407       .  A
C4747      N4753   1.349       .  A
C4748      C4749   1.408       .  A
C4748      H4759   1.082       .  S
C4749      C4758   1.381       .  A
C4749      C4750   1.385       .  A
C4750      C4751   1.399       .  A
C4750      N4756   1.342       .  A
C4751      C4752   1.399       .  A
C4751      H4760   1.083       .  S
C4752      C4755   1.370       .  A
N4753      C4754   1.357       .  A
N4753      H4763   1.044       .  S
C4754      C4755   1.393       .  A
C4755      H4761   1.083       .  S
N4756      C4757   1.354       .  A
N4756      H4764   1.045       .  S
C4757      C4758   1.398       .  A
C4758      H4762   1.082       .  S
C4765      C4770   1.384       .  A
C4765      C4766   1.408       .  A
C4765      N4771   1.345       .  A
C4766      C4767   1.406       .  A
C4766      H4777   1.082       .  S
C4767      C4776   1.385       .  A
C4767      C4768   1.385       .  A
C4768      C4769   1.402       .  A
C4768      N4774   1.340       .  A
C4769      C4770   1.399       .  A
C4769      H4778   1.082       .  S
C4770      C4773   1.377       .  A
N4771      C4772   1.358       .  A
N4771      H4781   1.045       .  S
C4772      C4773   1.392       .  A
C4773      H4779   1.082       .  S
N4774      C4775   1.354       .  A
N4774      H4782   1.045       .  S
C4775      C4776   1.397       .  A
C4776      H4780   1.082       .  S
C4783      C4788   1.384       .  A
C4783      C4784   1.409       .  A
C4783      N4789   1.347       .  A
C4784      C4785   1.407       .  A
C4784      H4795   1.082       .  S
C4785      C4794   1.385       .  A
C4785      C4786   1.384       .  A
C4786      C4787   1.402       .  A
C4786      N4792   1.341       .  A
C4787      C4788   1.401       .  A
C4787      H4796   1.082       .  S
C4788      C4791   1.377       .  A
N4789      C4790   1.358       .  A
N4789      H4799   1.045       .  S
C4790      C4791   1.393       .  A
C4791      H4797   1.082       .  S
N4792      C4793   1.354       .  A
N4792      H4800   1.045       .  S
C4793      C4794   1.397       .  A
C4794      H4798   1.082       .  S
