geometry optimzed in LAMMPS
_audit_creation_date              2020-11-30 
_audit_creation_method            'lammps2cif' 
_symmetry_space_group_name_H-M    'P1' 
_symmetry_Int_Tables_number       1 
_symmetry_cell_setting            triclinic 
loop_ 
_symmetry_equiv_pos_as_xyz 
  x,y,z 
_cell_length_a                    43.33815337180375 
_cell_length_b                    43.32401950163609 
_cell_length_c                    21.071817345739472 
_cell_angle_alpha                 90.08219536493496 
_cell_angle_beta                  89.71552594080197 
_cell_angle_gamma                 90.07850526534904 
loop_ 
_atom_site_label 
_atom_site_type_symbol 
_atom_site_fract_x 
_atom_site_fract_y 
_atom_site_fract_z 
_atom_site_charge 
O1          O  0.43725835  0.64519321  0.34793471    -0.72860
O2          O  0.34588133  0.64949259  0.34225248    -0.73840
O3          O  0.38918278  0.60250915  0.03732544    -0.62460
O4          O  0.39421493  0.69225732  0.31652902    -0.70870
O5          O  0.39626616  0.67726202  0.21609603    -0.70420
O6          O  0.39029083  0.58967846  0.26879804    -0.61680
O7          O  0.34666892  0.63605845  0.24075486    -0.74190
O8          O  0.44004785  0.63091426  0.24696081    -0.72970
Cu9        Cu  0.39163779  0.64797732  0.34779386     1.04560
Cu10       Cu  0.39337237  0.63304575  0.23963730     1.04330
C11         C  0.45317445  0.63670514  0.29994917     0.93340
C12         C  0.33157374  0.64315907  0.29113497     0.92480
C13         C  0.38873356  0.58188937  0.32709188     0.84620
C14         C  0.39598896  0.69880425  0.25730174     0.90890
O15         O  0.34595943  0.87352227  0.08078612    -0.72860
O16         O  0.43745064  0.87831696  0.07833205    -0.73840
O17         O  0.39422954  0.83158418  0.11099837    -0.62460
O18         O  0.38962000  0.92009348  0.05069188    -0.70870
O19         O  0.38898376  0.93470979  0.15170898    -0.70420
O20         O  0.39437754  0.84779634  0.21072691    -0.61680
O21         O  0.43865518  0.89385826  0.17868208    -0.74190
O22         O  0.34518417  0.88860571  0.18128581    -0.72970
Cu23       Cu  0.39186523  0.87520478  0.07683627     1.04560
Cu24       Cu  0.39182955  0.89174366  0.18412957     1.04330
C25         C  0.33085345  0.88077748  0.13069109     0.93340
C26         C  0.45260197  0.88733054  0.12668596     0.92480
C27         C  0.39496772  0.82576913  0.17058767     0.84620
C28         C  0.38818536  0.94136019  0.09275931     0.90890
O29         O  0.18354871  0.64904624  0.24471612    -0.72860
O30         O  0.09218889  0.64487881  0.23816661    -0.73840
O31         O  0.13535429  0.69172962  0.27096301    -0.62460
O32         O  0.14020656  0.60213767  0.21509399    -0.70870
O33         O  0.13898382  0.58897558  0.31676197    -0.70420
O34         O  0.13320737  0.67641588  0.03776740    -0.61680
O35         O  0.08921877  0.63043119  0.00562487    -0.74190
O36         O  0.18266286  0.63527099  0.01260223    -0.72970
Cu37       Cu  0.13781660  0.64755058  0.23878691     1.04560
Cu38       Cu  0.13593248  0.63229892  0.01335309     1.04330
C39         C  0.19780811  0.64260274  0.29577227     0.93340
C40         C  0.07614549  0.63663879  0.28614365     0.92480
C41         C  0.13359940  0.69808581  0.99698996     0.84620
C42         C  0.14084266  0.58142885  0.25834715     0.90890
O43         O  0.18215116  0.87404127  0.17578626    -0.72860
O44         O  0.09064423  0.87543216  0.17812256    -0.73840
O45         O  0.13521278  0.83060855  0.14541367    -0.62460
O46         O  0.13745439  0.91940470  0.20602449    -0.70870
O47         O  0.13778768  0.93384385  0.10507106    -0.70420
O48         O  0.13403859  0.84689331  0.04587216    -0.61680
O49         O  0.08879284  0.89170185  0.07860544    -0.74190
O50         O  0.18252403  0.88869977  0.07508371    -0.72970
Cu51       Cu  0.13631174  0.87430864  0.17976207     1.04560
Cu52       Cu  0.13572623  0.89086538  0.07269071     1.04330
C53         C  0.19704769  0.88124867  0.12563875     0.93340
C54         C  0.07501782  0.88332947  0.12969396     0.92480
C55         C  0.13422640  0.82482912  0.08578986     0.84620
C56         C  0.13882645  0.94063997  0.16393885     0.90890
O57         O  0.39348160  0.43739987  0.08862379    -0.72860
O58         O  0.39308015  0.34376489  0.09912830    -0.73840
O59         O  0.43717092  0.38928260  0.06693574    -0.62460
O60         O  0.34982915  0.39146662  0.12367747    -0.70870
O61         O  0.33427218  0.38743126  0.02408675    -0.70420
O62         O  0.42364458  0.38737247  0.96561480    -0.61680
O63         O  0.37967367  0.34172090  0.99774932    -0.74190
O64         O  0.37797719  0.43303366  0.98911483    -0.72970
Cu65       Cu  0.39392518  0.39063674  0.09806592     1.04560
Cu66       Cu  0.37831794  0.38736782  0.99070705     1.04330
C67         C  0.38538087  0.44991267  0.03624192     0.93340
C68         C  0.38677163  0.32810615  0.04919493     0.92480
C69         C  0.44451820  0.38738046  0.00837505     0.84620
C70         C  0.32805347  0.38951337  0.08348877     0.90890
O71         O  0.13526786  0.43612250  0.16603796    -0.72860
O72         O  0.13624424  0.34256565  0.16157223    -0.73840
O73         O  0.09211494  0.38796875  0.19212080    -0.62460
O74         O  0.17920072  0.39015815  0.13290088    -0.70870
O75         O  0.19525259  0.38789086  0.23238074    -0.70420
O76         O  0.10640266  0.38799238  0.29311744    -0.61680
O77         O  0.15041398  0.34199447  0.26248069    -0.74190
O78         O  0.15161147  0.43375937  0.26534244    -0.72970
Cu79       Cu  0.13515560  0.38930000  0.15971633     1.04560
Cu80       Cu  0.15150456  0.38794251  0.26678101     1.04330
C81         C  0.14377109  0.44965711  0.21711467     0.93340
C82         C  0.14306150  0.32757246  0.21193821     0.92480
C83         C  0.08523964  0.38708073  0.25102586     0.84620
C84         C  0.20117956  0.38912301  0.17278775     0.90890
O85         O  0.39232045  0.08606128  0.99910851    -0.72860
O86         O  0.39241748  0.17966971  0.33069715    -0.73840
O87         O  0.43614246  0.13357414  0.02485420    -0.62460
O88         O  0.34879087  0.13279411  0.30200533    -0.70870
O89         O  0.33305970  0.13378141  0.06891858    -0.70420
O90         O  0.42226069  0.13402438  0.12632926    -0.61680
O91         O  0.37769406  0.17983283  0.09815223    -0.74190
O92         O  0.37699492  0.08822843  0.09948997    -0.72970
Cu93       Cu  0.39296572  0.13294247  0.32735899     1.04560
Cu94       Cu  0.37695863  0.13392970  0.10169026     1.04330
C95         C  0.38406332  0.07246841  0.05039798     0.93180
C96         C  0.38529552  0.19448876  0.04803543     0.92480
C97         C  0.44328409  0.13465743  0.08346024     0.84620
C98         C  0.32697724  0.13321601  0.00947890     0.90890
O99         O  0.13527262  0.17858338  0.26814157    -0.72860
O100        O  0.13586651  0.08493847  0.26348017    -0.73840
O101        O  0.17928795  0.13173616  0.29404349    -0.62460
O102        O  0.09169918  0.13161575  0.24028014    -0.70870
O103        O  0.10480397  0.13275131  0.13861577    -0.70420
O104        O  0.19446534  0.13447729  0.19362712    -0.61680
O105        O  0.15100944  0.08783361  0.16308618    -0.74190
O106        O  0.14875820  0.17944802  0.16662454    -0.72970
Cu107      Cu  0.13501890  0.13170466  0.26995250     1.04560
Cu108      Cu  0.15029452  0.13365819  0.16200138     1.04330
C109        C  0.14179760  0.19374706  0.21763120     0.93340
C110        C  0.14379667  0.07169483  0.21157517     0.92480
C111        C  0.20088866  0.13317958  0.25286879     0.84620
C112        C  0.08398592  0.13196685  0.18193017     0.90890
O113        O  0.59176230  0.37534690  0.34692840    -0.72860
O114        O  0.68337434  0.37439679  0.34406722    -0.73840
O115        O  0.63845497  0.41971536  0.03966975    -0.62460
O116        O  0.63647067  0.33036320  0.31571885    -0.70870
O117        O  0.63560761  0.34582860  0.21551135    -0.70420
O118        O  0.63826699  0.43337708  0.27161787    -0.61680
O119        O  0.68347679  0.38863502  0.24312831    -0.74190
O120        O  0.58982797  0.39051584  0.24667669    -0.72970
Cu121      Cu  0.63747566  0.37439658  0.34836990     1.04560
Cu122      Cu  0.63672334  0.39010384  0.24074261     1.04330
C123        C  0.57608494  0.38285793  0.29825706     0.93340
C124        C  0.69814535  0.38168254  0.29378682     0.92480
C125        C  0.63946657  0.44064765  0.33023687     0.84620
C126        C  0.63567848  0.32411549  0.25629927     0.90890
O127        O  0.59054579  0.14662807  0.07644892    -0.72860
O128        O  0.68222689  0.14719012  0.07770141    -0.73840
O129        O  0.63706715  0.10200948  0.04978461    -0.62460
O130        O  0.63594339  0.19138742  0.10657043    -0.70870
O131        O  0.63351554  0.17614559  0.20681906    -0.70420
O132        O  0.63732016  0.08849436  0.15126468    -0.61680
O133        O  0.68195545  0.13388997  0.17917699    -0.74190
O134        O  0.58840952  0.13081798  0.17632457    -0.72970
Cu135      Cu  0.63637198  0.14734366  0.07416817     1.04560
Cu136      Cu  0.63521734  0.13181217  0.18188769     1.04330
C137        C  0.57477381  0.13876919  0.12514022     0.93340
C138        C  0.69681093  0.14055938  0.12825012     0.92480
C139        C  0.63840956  0.08115976  0.09264347     0.84620
C140        C  0.63456448  0.19778411  0.16589252     0.90890
O141        O  0.93821980  0.37411403  0.24544444    -0.72860
O142        O  0.84666119  0.37537904  0.24718092    -0.73840
O143        O  0.89299416  0.41977680  0.21915337    -0.62460
O144        O  0.89212707  0.33023502  0.27611028    -0.70870
O145        O  0.89346229  0.34577475  0.04286095    -0.70420
O146        O  0.89370294  0.43308136  0.32060696    -0.61680
O147        O  0.84670680  0.38950729  0.01492329    -0.74190
O148        O  0.94039003  0.38913117  0.01251967    -0.72970
Cu149      Cu  0.89247888  0.37432806  0.24348992     1.04560
Cu150      Cu  0.89354739  0.38990464  0.01783713     1.04330
C151        C  0.95399405  0.38115616  0.29431724     0.93340
C152        C  0.83196772  0.38268648  0.29752635     0.92480
C153        C  0.89360083  0.44067763  0.26217848     0.84620
C154        C  0.89289762  0.32399512  0.00220888     0.90890
O155        O  0.93617263  0.14535411  0.18301733    -0.72860
O156        O  0.84487094  0.14780672  0.17665481    -0.73840
O157        O  0.88879504  0.10205469  0.20781399    -0.62460
O158        O  0.89231856  0.19101104  0.14893596    -0.70870
O159        O  0.89487203  0.17505226  0.04918334    -0.70420
O160        O  0.88982862  0.08792939  0.10657116    -0.61680
O161        O  0.84577849  0.13340108  0.07573017    -0.74190
O162        O  0.93944613  0.12958735  0.08312844    -0.72970
Cu163      Cu  0.89056283  0.14720147  0.18247008     1.04560
Cu164      Cu  0.89260246  0.13100495  0.07510966     1.04330
C165        C  0.95239951  0.13645331  0.13581939     0.93340
C166        C  0.83061767  0.14067200  0.12595670     0.92480
C167        C  0.88808354  0.08095923  0.16527204     0.84620
C168        C  0.89392667  0.19700149  0.08945734     0.90890
O169        O  0.63446591  0.67880664  0.10001061    -0.72860
O170        O  0.63638900  0.58513868  0.09540310    -0.73840
O171        O  0.67923738  0.63248624  0.12650264    -0.62460
O172        O  0.59170264  0.63118561  0.07160073    -0.70870
O173        O  0.60519787  0.63288390  0.97013073    -0.70420
O174        O  0.69445276  0.63505768  0.02609414    -0.61680
O175        O  0.65142531  0.58820366  0.99498128    -0.74190
O176        O  0.64860307  0.67982976  0.99890323    -0.72970
Cu177      Cu  0.63494295  0.63189595  0.10188489     1.04560
Cu178      Cu  0.65047831  0.63404189  0.99409308     1.04330
C179        C  0.64102482  0.69406394  0.04962880     0.93340
C180        C  0.64429870  0.57197139  0.04339847     0.92480
C181        C  0.70085463  0.63389684  0.08533272     0.84620
C182        C  0.58425697  0.63162503  0.01309620     0.90890
O183        O  0.89271043  0.58475684  0.15893800    -0.72860
O184        O  0.89294834  0.67847284  0.15373217    -0.73840
O185        O  0.93678836  0.63171540  0.18056970    -0.62460
O186        O  0.84883733  0.63161667  0.12938555    -0.70870
O187        O  0.83444172  0.63295694  0.23044499    -0.70420
O188        O  0.92444640  0.63403412  0.28254273    -0.61680
O189        O  0.87923862  0.67944120  0.25514046    -0.74190
O190        O  0.87977217  0.58792702  0.26069696    -0.72970
Cu191      Cu  0.89324178  0.63160597  0.15211328     1.04560
Cu192      Cu  0.87886980  0.63364188  0.26063687     1.04330
C193        C  0.88702068  0.57175011  0.21225821     0.93340
C194        C  0.88626555  0.69368164  0.20415591     0.92480
C195        C  0.94492043  0.63256920  0.23863351     0.84620
C196        C  0.82757487  0.63235231  0.17136054     0.90890
O197        O  0.63634805  0.93646278  0.99574704    -0.72860
O198        O  0.63415080  0.84290809  0.32612873    -0.73840
O199        O  0.59145831  0.89072534  0.02063036    -0.62460
O200        O  0.67892050  0.88878477  0.29862621    -0.70870
O201        O  0.69408549  0.88655966  0.06536551    -0.70420
O202        O  0.60443187  0.88987810  0.12213179    -0.61680
O203        O  0.64740950  0.84216463  0.09427158    -0.74190
O204        O  0.65134923  0.93389161  0.09595025    -0.72970
Cu205      Cu  0.63472212  0.88970688  0.32351771     1.04560
Cu206      Cu  0.64988048  0.88806358  0.09793002     1.04330
C207        C  0.64426589  0.94987737  0.04733248     0.93340
C208        C  0.64027590  0.82785669  0.04348259     0.92480
C209        C  0.58372001  0.89112746  0.07907762     0.84620
C210        C  0.70053407  0.88738498  0.00593493     0.90890
O211        O  0.89279254  0.84243936  0.26122614    -0.72860
O212        O  0.89332297  0.93598997  0.25860585    -0.73840
O213        O  0.84955814  0.88954030  0.29082378    -0.62460
O214        O  0.93673685  0.88834949  0.23156881    -0.70870
O215        O  0.92245216  0.88879370  0.13057123    -0.70420
O216        O  0.83358125  0.88714753  0.19129261    -0.61680
O217        O  0.87674738  0.93377233  0.15940820    -0.74190
O218        O  0.87883547  0.84202575  0.16020144    -0.72970
Cu219      Cu  0.89365951  0.88916642  0.26400359     1.04560
Cu220      Cu  0.87732935  0.88797573  0.15691597     1.04330
C221        C  0.88605843  0.82751748  0.21060928     0.93340
C222        C  0.88463253  0.94958324  0.20784587     0.92480
C223        C  0.82760327  0.88819590  0.25088676     0.84620
C224        C  0.94362538  0.88794950  0.17263958     0.90890
C225        C  0.75736225  0.88927457  0.36022683    -0.21220
C226        C  0.73305460  0.88702139  0.31672123    -0.09270
C227        C  0.74019759  0.88497628  0.25140168     0.29590
C228        C  0.77086495  0.88533274  0.23064401    -0.21220
C229        C  0.79518107  0.88777300  0.27405979    -0.09280
C230        C  0.78807038  0.88967214  0.33942355     0.29600
F231        F  0.81066195  0.89207997  0.38354176    -0.19800
H232        H  0.75259315  0.89103989  0.07720639     0.17960
H233        H  0.77557259  0.88364227  0.18029635     0.17970
F234        F  0.71765388  0.88252029  0.20718132    -0.19790
C235        C  0.88713303  0.77754644  0.15101807    -0.21220
C236        C  0.88664392  0.79328659  0.20943136    -0.09270
C237        C  0.88637397  0.77595199  0.26566747     0.29590
C238        C  0.88627462  0.74371103  0.26321221    -0.21220
C239        C  0.88673806  0.72793646  0.20484280    -0.09280
C240        C  0.88732667  0.74526370  0.14856850     0.29600
F241        F  0.88753684  0.73109625  0.09122658    -0.19800
H242        H  0.88748610  0.79032389  0.10705281     0.17960
H243        H  0.88586326  0.73099737  0.30725077     0.17970
F244        F  0.88554380  0.79007996  0.32303799    -0.19790
C245        C  0.63407357  0.77799480  0.10167886    -0.21220
C246        C  0.63932797  0.79369026  0.04422579    -0.09270
C247        C  0.64460188  0.77641572  0.98881346     0.29590
C248        C  0.64503782  0.74417523  0.99125245    -0.21220
C249        C  0.63994634  0.72835516  0.04875567    -0.09280
C250        C  0.63416828  0.74570614  0.10405449     0.29600
F251        F  0.62885830  0.73163378  0.16053949    -0.19800
H252        H  0.62972552  0.79079455  0.14496729     0.17960
H253        H  0.64963422  0.73158396  0.94783246     0.17970
F254        F  0.65044267  0.79062581  0.93267346    -0.19790
C255        C  0.74027497  0.62461712  0.16949372    -0.21220
C256        C  0.73332318  0.63384605  0.10712744    -0.09270
C257        C  0.75760243  0.64279533  0.06665807     0.29590
C258        C  0.78806550  0.64214462  0.08803409    -0.21220
C259        C  0.79502421  0.63285578  0.15030719    -0.09280
C260        C  0.77077232  0.62401268  0.19089681     0.29600
F261        F  0.77655116  0.61383514  0.25051239    -0.19800
H262        H  0.72209077  0.61740094  0.20167877     0.17960
H263        H  0.80625824  0.64930582  0.05581002     0.17970
F264        F  0.75193624  0.65290053  0.00694025    -0.19790
C265        C  0.86735078  0.99688453  0.15229457    -0.21220
C266        C  0.88349404  0.98372067  0.20315422    -0.09270
C267        C  0.89907143  0.00339415  0.24575055     0.29590
C268        C  0.89952270  0.03544409  0.23533931    -0.21220
C269        C  0.88471110  0.04809009  0.18221990    -0.09280
C270        C  0.86793605  0.02854803  0.14182849     0.29600
F271        F  0.85216193  0.04006310  0.09162492    -0.19800
H272        H  0.85455993  0.98255453  0.11944453     0.17960
H273        H  0.91251057  0.05017359  0.26709194     0.17970
F274        F  0.91494621  0.99168151  0.29553621    -0.19790
C275        C  0.88675381  0.48464004  0.18469250    -0.21220
C276        C  0.89392324  0.47402740  0.24605864    -0.09270
C277        C  0.90036401  0.49590257  0.29375703     0.29590
C278        C  0.89821528  0.52727812  0.28126523    -0.21220
C279        C  0.89008716  0.53802511  0.22092006    -0.09280
C280        C  0.88496260  0.51648078  0.17202564     0.29600
F281        F  0.87704750  0.52610038  0.11308372    -0.19800
H282        H  0.88183359  0.46835752  0.14702341     0.17960
H283        H  0.90306955  0.54334148  0.31941537     0.17970
F284        F  0.90882009  0.48716654  0.35302156    -0.19790
C285        C  0.89398064  0.25381914  0.11051144    -0.21220
C286        C  0.89426243  0.22942321  0.06669673    -0.09270
C287        C  0.89422943  0.23644478  0.00128089     0.29590
C288        C  0.89373791  0.26713418  0.98081241    -0.21220
C289        C  0.89331964  0.29152367  0.02466705    -0.09280
C290        C  0.89354660  0.28448371  0.09007125     0.29600
F291        F  0.89324991  0.30711233  0.13468638    -0.19800
H292        H  0.89399650  0.24915887  0.16091003     0.17960
H293        H  0.89366616  0.27182300  0.26375992     0.17970
F294        F  0.89444915  0.21377612  0.95675491    -0.19790
C295        C  0.65966590  0.99714288  0.10581272    -0.21220
C296        C  0.64498589  0.98400521  0.05297726    -0.09270
C297        C  0.62996474  0.00364476  0.00966440     0.29590
C298        C  0.62866284  0.03559837  0.02109032    -0.21220
C299        C  0.64201947  0.04821841  0.07597699    -0.09280
C300        C  0.65822821  0.02871540  0.11730485     0.29600
F301        F  0.67277304  0.04015553  0.16923359    -0.19800
H302        H  0.67194483  0.98284550  0.13939507     0.17960
H303        H  0.61623892  0.05026679  0.98843337     0.17970
F304        F  0.61544853  0.99196284  0.29134016    -0.19790
C305        C  0.74752967  0.13972624  0.18425178    -0.21220
C306        C  0.73104955  0.14052789  0.12725694    -0.09270
C307        C  0.74766867  0.14116127  0.06955625     0.29590
C308        C  0.77995103  0.14105274  0.06936852    -0.21220
C309        C  0.79639751  0.14060129  0.12642378    -0.09280
C310        C  0.77977296  0.13990288  0.18407805     0.29600
F311        F  0.79461614  0.13881866  0.24047300    -0.19800
H312        H  0.73539910  0.13908711  0.22912082     0.17960
H313        H  0.79214287  0.14158924  0.02455999     0.17970
F314        F  0.73280226  0.14148555  0.01315259    -0.19790
C315        C  0.62984332  0.48591846  0.06952126    -0.21220
C316        C  0.64274634  0.47363209  0.34694747    -0.09270
C317        C  0.65814757  0.49351244  0.30466804     0.29590
C318        C  0.65927495  0.52507359  0.31637734    -0.21220
C319        C  0.64508779  0.53785882  0.03706668    -0.09280
C320        C  0.63084067  0.51787089  0.08119115     0.29600
F321        F  0.61687045  0.52918063  0.13407686    -0.19800
H322        H  0.61803784  0.47097122  0.10291733     0.17960
H323        H  0.67097541  0.53962376  0.28208462     0.17970
F324        F  0.67223689  0.48246087  0.25160543    -0.19790
C325        C  0.74927548  0.38304418  0.23807917    -0.21220
C326        C  0.73238124  0.38226004  0.29493382    -0.09270
C327        C  0.74857983  0.38224592  0.35279784     0.29590
C328        C  0.78084685  0.38277531  0.01999364    -0.21220
C329        C  0.79773735  0.38305405  0.29645668    -0.09280
C330        C  0.78154013  0.38328725  0.23860232     0.29600
F331        F  0.79682144  0.38412439  0.18236921    -0.19800
H332        H  0.73746162  0.38322636  0.19307918     0.17960
H333        H  0.79267323  0.38260033  0.06498120     0.17970
F334        F  0.73329878  0.38210513  0.07571940    -0.19790
C335        C  0.62501298  0.23713130  0.25069634    -0.21220
C336        C  0.63434790  0.23025639  0.18817227    -0.09270
C337        C  0.64400924  0.25452845  0.14852460     0.29590
C338        C  0.64418425  0.28489503  0.17104411    -0.21220
C339        C  0.63504962  0.29173455  0.23366473    -0.09280
C340        C  0.62523318  0.26751264  0.27323501     0.29600
F341        F  0.61502837  0.27322381  0.33307011    -0.19800
H342        H  0.61726865  0.21895631  0.28225463     0.17960
H343        H  0.65199111  0.30307127  0.13954850     0.17970
F344        F  0.65426112  0.24889689  0.08869334    -0.19790
C345        C  0.00712473  0.13600897  0.09364330    -0.21220
C346        C  0.98617917  0.13362959  0.14464769    -0.09270
C347        C  0.99778031  0.12912604  0.20617620     0.29590
C348        C  0.02936089  0.12813824  0.21672556    -0.21220
C349        C  0.05055880  0.13157737  0.16658988    -0.09280
C350        C  0.03914711  0.13510810  0.10442637     0.29600
F351        F  0.05875094  0.13830116  0.05445844    -0.19800
H352        H  0.99875374  0.13934729  0.04582574     0.17960
H353        H  0.03713949  0.12482890  0.26498954     0.17970
F354        F  0.97857754  0.12535019  0.25671147    -0.19790
C355        C  0.52733711  0.15554251  0.06979145    -0.21220
C356        C  0.54063101  0.13928084  0.12034211    -0.09270
C357        C  0.52109451  0.12322198  0.16271539     0.29590
C358        C  0.48903584  0.12255057  0.15251140    -0.21220
C359        C  0.47625547  0.13762848  0.09981002    -0.09280
C360        C  0.49569039  0.15477371  0.05956418     0.29600
F361        F  0.48406478  0.17091207  0.00992694    -0.19800
H362        H  0.54154995  0.16870987  0.03716033     0.17960
H363        H  0.47440326  0.10931535  0.18421374     0.17970
F364        F  0.53296005  0.10717837  0.21214960    -0.19790
C365        C  0.28805085  0.14252485  0.25784183    -0.21220
C366        C  0.29466634  0.13316503  0.32024680    -0.09270
C367        C  0.27028084  0.12354379  0.02638584     0.29590
C368        C  0.23998177  0.12365828  0.33731460    -0.21220
C369        C  0.23330808  0.13313806  0.27499255    -0.09280
C370        C  0.25772278  0.14267254  0.23542623     0.29600
F371        F  0.25228424  0.15297043  0.17575981    -0.19800
H372        H  0.30637889  0.15017443  0.22642999     0.17960
H373        H  0.22171130  0.11594785  0.03546772     0.17970
F374        F  0.27575101  0.11310804  0.08594495    -0.19790
C375        C  0.03370505  0.36573550  0.22884569    -0.21220
C376        C  0.05242370  0.38365704  0.26849925    -0.09270
C377        C  0.03906982  0.39867526  0.32107346     0.29590
C378        C  0.00700952  0.39703151  0.33123392    -0.21220
C379        C  0.98811107  0.38023164  0.28931199    -0.09280
C380        C  0.00207626  0.36375312  0.23919178     0.29600
F381        F  0.98518198  0.34586410  0.19934900    -0.19800
H382        H  0.04361971  0.35336415  0.18893925     0.17960
H383        H  0.99687413  0.40977823  0.37033929     0.17970
F384        F  0.05663126  0.41622273  0.36025333    -0.19790
C385        C  0.14293838  0.24378395  0.15875624    -0.21220
C386        C  0.14143828  0.22801345  0.21700908    -0.09270
C387        C  0.14017317  0.24536421  0.27333208     0.29590
C388        C  0.14071019  0.27763754  0.27107329    -0.21220
C389        C  0.14225154  0.29335788  0.21280402    -0.09280
C390        C  0.14318035  0.27603128  0.15648850     0.29600
F391        F  0.14506262  0.29017357  0.09929258    -0.19800
H392        H  0.14401267  0.23107500  0.11466809     0.17960
H393        H  0.13971601  0.29042757  0.31508006     0.17970
F394        F  0.13891426  0.23123758  0.33059816    -0.19790
C395        C  0.52865108  0.36752182  0.02310545    -0.21220
C396        C  0.54193186  0.38236582  0.30372651    -0.09270
C397        C  0.52236491  0.39708014  0.25986550     0.29590
C398        C  0.49030292  0.39787187  0.27060762    -0.21220
C399        C  0.47754321  0.38427319  0.99198044    -0.09280
C400        C  0.49701734  0.36843158  0.03387600     0.29600
F401        F  0.48546136  0.35368346  0.08565342    -0.19800
H402        H  0.54285391  0.35538143  0.05705026     0.17960
H403        H  0.47564131  0.41004881  0.23756886     0.17970
F404        F  0.53417991  0.41164772  0.20821030    -0.19790
C405        C  0.39415421  0.24517672  0.99416944    -0.21220
C406        C  0.38603127  0.22875495  0.04918017    -0.09270
C407        C  0.37898282  0.24547833  0.10505115     0.29590
C408        C  0.38000817  0.27775883  0.10529646    -0.21220
C409        C  0.38754840  0.29402155  0.04991829    -0.09280
C410        C  0.39482587  0.27741187  0.99432808     0.29600
F411        F  0.40314299  0.29231543  0.94024027    -0.19800
H412        H  0.39996939  0.23308873  0.95071836     0.17960
H413        H  0.37416432  0.29007438  0.14847835     0.17970
F414        F  0.37081872  0.23082071  0.15949841    -0.19790
C415        C  0.27120083  0.38858109  0.06303348    -0.21220
C416        C  0.29561010  0.38958476  0.10646628    -0.09270
C417        C  0.28861503  0.39052648  0.17195945     0.29590
C418        C  0.25797394  0.39037386  0.19289960    -0.21220
C419        C  0.23356362  0.38934237  0.14950036    -0.09280
C420        C  0.24053417  0.38851214  0.08400194     0.29600
F421        F  0.21783956  0.38746186  0.03989306    -0.19800
H422        H  0.27585595  0.38781250  0.01259410     0.17960
H423        H  0.25334417  0.39113113  0.24335104     0.17970
F424        F  0.31126616  0.39148393  0.21618035    -0.19790
C425        C  0.12827980  0.98577245  0.23631291    -0.21220
C426        C  0.14235131  0.97344654  0.18165542    -0.09270
C427        C  0.15895117  0.99319774  0.14109589     0.29590
C428        C  0.16004724  0.02474050  0.15298268    -0.21220
C429        C  0.14463928  0.03759751  0.20548950    -0.09280
C430        C  0.12926257  0.01770930  0.24817054     0.29600
F431        F  0.11408615  0.02913546  0.29952719    -0.19800
H432        H  0.11551555  0.97089919  0.26833700     0.17960
H433        H  0.17265787  0.03923695  0.11996958     0.17970
F434        F  0.17414788  0.98202539  0.08944468    -0.19790
C435        C  0.02202779  0.90013884  0.09423297    -0.21220
C436        C  0.04087587  0.88252455  0.13462570    -0.09270
C437        C  0.02682467  0.86491914  0.18297476     0.29590
C438        C  0.99516980  0.86649499  0.19318349    -0.21220
C439        C  0.97648336  0.88510633  0.15508724    -0.09280
C440        C  0.98992153  0.90137686  0.10423600     0.29600
F441        F  0.97238075  0.91968057  0.06670490    -0.19800
H442        H  0.03222426  0.91374170  0.05647857     0.17960
H443        H  0.98519211  0.85321809  0.23173245     0.17970
F444        F  0.04365051  0.84619708  0.22110019    -0.19790
C445        C  0.13060956  0.53564706  0.18774860    -0.21220
C446        C  0.14399500  0.54834282  0.24253917    -0.09270
C447        C  0.15906925  0.52869046  0.28533563     0.29590
C448        C  0.15943849  0.49697768  0.27523731    -0.21220
C449        C  0.14479882  0.48382111  0.22233366    -0.09280
C450        C  0.13086007  0.50355414  0.17767822     0.29600
F451        F  0.11652665  0.49190169  0.12578027    -0.19800
H452        H  0.11893386  0.55041025  0.15411388     0.17960
H453        H  0.17095322  0.48263324  0.30986283     0.17970
F454        F  0.17346597  0.54012157  0.33745209    -0.19790
C455        C  0.98928780  0.63823419  0.31508037    -0.21220
C456        C  0.97834717  0.63181951  0.25359470    -0.09270
C457        C  0.99991942  0.62518539  0.20521263     0.29590
C458        C  0.03137913  0.62634394  0.21733141    -0.21220
C459        C  0.04243139  0.63369246  0.27789256    -0.09280
C460        C  0.02115273  0.63908327  0.32729848     0.29600
F461        F  0.03110219  0.64648763  0.05299953    -0.19800
H462        H  0.97325085  0.64325114  0.35328554     0.17960
H463        H  0.04726532  0.62148228  0.17872620     0.17970
F464        F  0.99081175  0.61751503  0.14568976    -0.19790
C465        C  0.13680953  0.75491941  0.97641055    -0.21220
C466        C  0.13253366  0.73056563  0.01940717    -0.09270
C467        C  0.12818316  0.73760220  0.08430611     0.29590
C468        C  0.12866846  0.76819783  0.10530591    -0.21220
C469        C  0.13334627  0.79251936  0.06246071    -0.09280
C470        C  0.13720098  0.78555049  0.99743054     0.29600
F471        F  0.14194171  0.80819489  0.95399818    -0.19800
H472        H  0.14034293  0.75025643  0.92642270     0.17960
H473        H  0.12529056  0.77284056  0.15534967     0.17970
F474        F  0.12346787  0.71501947  0.12789672    -0.19790
C475        C  0.39999036  0.01934332  0.01391620    -0.21220
C476        C  0.38261755  0.03837408  0.05479738    -0.09270
C477        C  0.36492990  0.02456004  0.10334654     0.29590
C478        C  0.36632197  0.99289538  0.11343539    -0.21220
C479        C  0.38483483  0.97405602  0.07497269    -0.09280
C480        C  0.40106739  0.98728136  0.02380377     0.29600
F481        F  0.41934529  0.96959007  0.98603578    -0.19800
H482        H  0.41366329  0.02937903  0.97604073     0.17960
H483        H  0.35313969  0.98306207  0.15231357     0.17970
F484        F  0.34645357  0.04165881  0.14192600    -0.19790
C485        C  0.53922480  0.88510390  0.15599297    -0.21220
C486        C  0.55042199  0.89292680  0.09521625    -0.09270
C487        C  0.52913610  0.90139273  0.04801040     0.29590
C488        C  0.49763450  0.90018295  0.06009036    -0.21220
C489        C  0.48629571  0.89101709  0.11951327    -0.09280
C490        C  0.50729279  0.88424248  0.16825048     0.29600
F491        F  0.49701291  0.87526622  0.22628906    -0.19800
H492        H  0.55508033  0.87872196  0.19329340     0.17960
H493        H  0.48191717  0.90620837  0.02223340     0.17970
F494        F  0.53858730  0.91067841  0.98953111    -0.19790
C495        C  0.27957273  0.88186505  0.18578738    -0.21220
C496        C  0.29661306  0.88051265  0.12914607    -0.09270
C497        C  0.28055085  0.87953095  0.07113172     0.29590
C498        C  0.24827715  0.87995364  0.07025791    -0.21220
C499        C  0.23126510  0.88104840  0.12693952    -0.09280
C500        C  0.24731694  0.88195426  0.18493132     0.29600
F501        F  0.23189788  0.88357035  0.24095024    -0.19800
H502        H  0.29126224  0.88283188  0.23089924     0.17960
H503        H  0.23654114  0.87915364  0.02517967     0.17970
F504        F  0.29596316  0.87869117  0.01504258    -0.19790
C505        C  0.37579017  0.52859894  0.29439601    -0.21220
C506        C  0.38616696  0.54861106  0.34212601    -0.09270
C507        C  0.39490763  0.53614010  0.06770223     0.29590
C508        C  0.39422332  0.50402656  0.07726323    -0.21220
C509        C  0.38464984  0.48399213  0.02842303    -0.09280
C510        C  0.37488336  0.49688382  0.30380664     0.29600
F511        F  0.36470939  0.47898206  0.25524912    -0.19800
H512        H  0.36847831  0.53749793  0.24885886     0.17960
H513        H  0.40167193  0.49484346  0.12242828     0.17970
F514        F  0.40514767  0.55473838  0.11502455    -0.19790
C515        C  0.50778311  0.63867807  0.25831021    -0.21220
C516        C  0.48680588  0.63302816  0.30808511    -0.09270
C517        C  0.49821687  0.62478573  0.03469703     0.29590
C518        C  0.52977931  0.62368721  0.04547305    -0.21220
C519        C  0.55099805  0.63073101  0.99701300    -0.09280
C520        C  0.53974915  0.63767724  0.26930284     0.29600
F521        F  0.55943012  0.64451953  0.22103283    -0.19800
H522        H  0.49945965  0.64487947  0.21166056     0.17960
H523        H  0.53755246  0.61760140  0.09260176     0.17970
F524        F  0.47880469  0.61764602  0.08332837    -0.19790
C525        C  0.28132837  0.64343222  0.34983882    -0.21220
C526        C  0.29735442  0.64359571  0.29162914    -0.09270
C527        C  0.28031257  0.64384164  0.23516276     0.29590
C528        C  0.24806295  0.64382824  0.23721195    -0.21220
C529        C  0.23202999  0.64326489  0.29540252    -0.09280
C530        C  0.24907097  0.64312654  0.01854907     0.29600
F531        F  0.23464049  0.64299028  0.07571714    -0.19800
H532        H  0.29385150  0.64316923  0.06067538     0.17960
H533        H  0.23555530  0.64394633  0.19302172     0.17970
F534        F  0.29473725  0.64441720  0.17799993    -0.19790
C535        C  0.40114165  0.76924486  0.15033685    -0.21220
C536        C  0.39629527  0.79343565  0.19354538    -0.09270
C537        C  0.39243400  0.78627881  0.25845469     0.29590
C538        C  0.39287095  0.75558788  0.27895489    -0.21220
C539        C  0.39719103  0.73136198  0.23553955    -0.09280
C540        C  0.40166809  0.73859774  0.17081413     0.29600
F541        F  0.40648643  0.71615286  0.12686468    -0.19800
H542        H  0.40451763  0.77401831  0.10036520     0.17960
H543        H  0.38928486  0.75077552  0.32884805     0.17970
F544        F  0.38758394  0.80878410  0.30224680    -0.19790
O545        O  0.43725835  0.64519321  0.68126803    -0.72860
O546        O  0.34588133  0.64949258  0.67558580    -0.73840
O547        O  0.38918278  0.60250915  0.37065878    -0.62460
O548        O  0.39421493  0.69225732  0.64986234    -0.70870
O549        O  0.39626616  0.67726202  0.54942935    -0.70420
O550        O  0.39029084  0.58967846  0.60213134    -0.61680
O551        O  0.34666892  0.63605845  0.57408818    -0.74190
O552        O  0.44004786  0.63091427  0.58029412    -0.72970
Cu553      Cu  0.39163779  0.64797731  0.68112717     1.04560
Cu554      Cu  0.39337238  0.63304575  0.57297062     1.04330
C555        C  0.45317445  0.63670515  0.63328248     0.93340
C556        C  0.33157374  0.64315906  0.62446829     0.92480
C557        C  0.38873357  0.58188937  0.66042518     0.84620
C558        C  0.39598896  0.69880425  0.59063507     0.90890
O559        O  0.34595943  0.87352227  0.41411945    -0.72860
O560        O  0.43745064  0.87831696  0.41166539    -0.73840
O561        O  0.39422954  0.83158418  0.44433171    -0.62460
O562        O  0.38962000  0.92009348  0.38402521    -0.70870
O563        O  0.38898375  0.93470979  0.48504231    -0.70420
O564        O  0.39437754  0.84779635  0.54406025    -0.61680
O565        O  0.43865518  0.89385826  0.51201542    -0.74190
O566        O  0.34518417  0.88860572  0.51461914    -0.72970
Cu567      Cu  0.39186523  0.87520478  0.41016960     1.04560
Cu568      Cu  0.39182955  0.89174367  0.51746290     1.04330
C569        C  0.33085345  0.88077748  0.46402442     0.93340
C570        C  0.45260197  0.88733054  0.46001930     0.92480
C571        C  0.39496772  0.82576913  0.50392101     0.84620
C572        C  0.38818536  0.94136020  0.42609264     0.90890
O573        O  0.18354871  0.64904624  0.57804945    -0.72860
O574        O  0.09218889  0.64487880  0.57149995    -0.73840
O575        O  0.13535429  0.69172962  0.60429635    -0.62460
O576        O  0.14020656  0.60213767  0.54842732    -0.70870
O577        O  0.13898382  0.58897558  0.65009530    -0.70420
O578        O  0.13320736  0.67641588  0.37110072    -0.61680
O579        O  0.08921877  0.63043120  0.33895818    -0.74190
O580        O  0.18266286  0.63527099  0.34593556    -0.72970
Cu581      Cu  0.13781661  0.64755058  0.57212025     1.04560
Cu582      Cu  0.13593248  0.63229893  0.34668641     1.04330
C583        C  0.19780811  0.64260273  0.62910560     0.93340
C584        C  0.07614549  0.63663879  0.61947699     0.92480
C585        C  0.13359940  0.69808581  0.33032327     0.84620
C586        C  0.14084266  0.58142885  0.59168049     0.90890
O587        O  0.18215116  0.87404127  0.50911958    -0.72860
O588        O  0.09064423  0.87543216  0.51145589    -0.73840
O589        O  0.13521278  0.83060855  0.47874699    -0.62460
O590        O  0.13745439  0.91940470  0.53935782    -0.70870
O591        O  0.13778768  0.93384385  0.43840439    -0.70420
O592        O  0.13403859  0.84689331  0.37920548    -0.61680
O593        O  0.08879284  0.89170185  0.41193876    -0.74190
O594        O  0.18252403  0.88869977  0.40841703    -0.72970
Cu595      Cu  0.13631174  0.87430864  0.51309540     1.04560
Cu596      Cu  0.13572623  0.89086538  0.40602403     1.04330
C597        C  0.19704769  0.88124867  0.45897208     0.93340
C598        C  0.07501782  0.88332947  0.46302728     0.92480
C599        C  0.13422640  0.82482912  0.41912318     0.84620
C600        C  0.13882645  0.94063997  0.49727217     0.90890
O601        O  0.39348160  0.43739987  0.42195712    -0.72860
O602        O  0.39308015  0.34376489  0.43246163    -0.73840
O603        O  0.43717093  0.38928260  0.40026906    -0.62460
O604        O  0.34982915  0.39146662  0.45701080    -0.70870
O605        O  0.33427218  0.38743126  0.35742009    -0.70420
O606        O  0.42364458  0.38737247  0.29894813    -0.61680
O607        O  0.37967367  0.34172090  0.33108265    -0.74190
O608        O  0.37797719  0.43303366  0.32244816    -0.72970
Cu609      Cu  0.39392519  0.39063674  0.43139925     1.04560
Cu610      Cu  0.37831794  0.38736782  0.32404038     1.04330
C611        C  0.38538087  0.44991267  0.36957525     0.93340
C612        C  0.38677163  0.32810615  0.38252826     0.92480
C613        C  0.44451820  0.38738046  0.34170837     0.84620
C614        C  0.32805348  0.38951337  0.41682210     0.90890
O615        O  0.13526786  0.43612250  0.49937130    -0.72860
O616        O  0.13624425  0.34256565  0.49490557    -0.73840
O617        O  0.09211495  0.38796874  0.52545414    -0.62460
O618        O  0.17920072  0.39015815  0.46623422    -0.70870
O619        O  0.19525259  0.38789086  0.56571408    -0.70420
O620        O  0.10640266  0.38799238  0.62645078    -0.61680
O621        O  0.15041399  0.34199447  0.59581403    -0.74190
O622        O  0.15161148  0.43375937  0.59867578    -0.72970
Cu623      Cu  0.13515561  0.38930000  0.49304967     1.04560
Cu624      Cu  0.15150457  0.38794251  0.60011435     1.04330
C625        C  0.14377109  0.44965711  0.55044801     0.93340
C626        C  0.14306151  0.32757246  0.54527155     0.92480
C627        C  0.08523964  0.38708073  0.58435920     0.84620
C628        C  0.20117956  0.38912301  0.50612108     0.90890
O629        O  0.39232045  0.08606128  0.33244183    -0.72860
O630        O  0.39241749  0.17966971  0.66403050    -0.73840
O631        O  0.43614246  0.13357414  0.35818752    -0.62460
O632        O  0.34879088  0.13279411  0.63533868    -0.70870
O633        O  0.33305971  0.13378141  0.40225191    -0.70420
O634        O  0.42226069  0.13402438  0.45966258    -0.61680
O635        O  0.37769406  0.17983283  0.43148556    -0.74190
O636        O  0.37699492  0.08822843  0.43282330    -0.72970
Cu637      Cu  0.39296573  0.13294247  0.66069234     1.04560
Cu638      Cu  0.37695863  0.13392970  0.43502359     1.04330
C639        C  0.38406332  0.07246841  0.38373131     0.93180
C640        C  0.38529552  0.19448876  0.38136876     0.92480
C641        C  0.44328409  0.13465743  0.41679356     0.84620
C642        C  0.32697724  0.13321601  0.34281224     0.90890
O643        O  0.13527264  0.17858338  0.60147491    -0.72860
O644        O  0.13586652  0.08493847  0.59681351    -0.73840
O645        O  0.17928796  0.13173616  0.62737682    -0.62460
O646        O  0.09169919  0.13161575  0.57361350    -0.70870
O647        O  0.10480397  0.13275132  0.47194912    -0.70420
O648        O  0.19446534  0.13447729  0.52696045    -0.61680
O649        O  0.15100944  0.08783361  0.49641952    -0.74190
O650        O  0.14875821  0.17944802  0.49995788    -0.72970
Cu651      Cu  0.13501891  0.13170466  0.60328584     1.04560
Cu652      Cu  0.15029453  0.13365819  0.49533472     1.04330
C653        C  0.14179762  0.19374706  0.55096454     0.93340
C654        C  0.14379667  0.07169483  0.54490851     0.92480
C655        C  0.20088867  0.13317957  0.58620212     0.84620
C656        C  0.08398593  0.13196686  0.51526353     0.90890
O657        O  0.59176230  0.37534690  0.68026174    -0.72860
O658        O  0.68337434  0.37439679  0.67740054    -0.73840
O659        O  0.63845497  0.41971536  0.37300308    -0.62460
O660        O  0.63647068  0.33036320  0.64905218    -0.70870
O661        O  0.63560761  0.34582860  0.54884468    -0.70420
O662        O  0.63826700  0.43337708  0.60495120    -0.61680
O663        O  0.68347680  0.38863502  0.57646163    -0.74190
O664        O  0.58982797  0.39051584  0.58001002    -0.72970
Cu665      Cu  0.63747567  0.37439659  0.68170323     1.04560
Cu666      Cu  0.63672334  0.39010384  0.57407594     1.04330
C667        C  0.57608495  0.38285793  0.63159039     0.93340
C668        C  0.69814536  0.38168254  0.62712015     0.92480
C669        C  0.63946657  0.44064766  0.66357020     0.84620
C670        C  0.63567849  0.32411550  0.58963260     0.90890
O671        O  0.59054580  0.14662807  0.40978224    -0.72860
O672        O  0.68222689  0.14719012  0.41103473    -0.73840
O673        O  0.63706715  0.10200948  0.38311793    -0.62460
O674        O  0.63594339  0.19138743  0.43990375    -0.70870
O675        O  0.63351554  0.17614559  0.54015238    -0.70420
O676        O  0.63732016  0.08849436  0.48459801    -0.61680
O677        O  0.68195545  0.13388998  0.51251031    -0.74190
O678        O  0.58840952  0.13081798  0.50965789    -0.72970
Cu679      Cu  0.63637198  0.14734366  0.40750149     1.04560
Cu680      Cu  0.63521734  0.13181217  0.51522101     1.04330
C681        C  0.57477381  0.13876919  0.45847354     0.93340
C682        C  0.69681093  0.14055938  0.46158345     0.92480
C683        C  0.63840957  0.08115976  0.42597680     0.84620
C684        C  0.63456448  0.19778411  0.49922585     0.90890
O685        O  0.93821981  0.37411403  0.57877777    -0.72860
O686        O  0.84666119  0.37537904  0.58051425    -0.73840
O687        O  0.89299417  0.41977681  0.55248670    -0.62460
O688        O  0.89212707  0.33023502  0.60944360    -0.70870
O689        O  0.89346229  0.34577476  0.37619429    -0.70420
O690        O  0.89370294  0.43308136  0.65394030    -0.61680
O691        O  0.84670680  0.38950730  0.34825662    -0.74190
O692        O  0.94039003  0.38913118  0.34585300    -0.72970
Cu693      Cu  0.89247889  0.37432806  0.57682325     1.04560
Cu694      Cu  0.89354739  0.38990464  0.35117046     1.04330
C695        C  0.95399405  0.38115616  0.62765057     0.93340
C696        C  0.83196772  0.38268648  0.63085968     0.92480
C697        C  0.89360084  0.44067764  0.59551182     0.84620
C698        C  0.89289762  0.32399513  0.33554222     0.90890
O699        O  0.93617262  0.14535413  0.51635069    -0.72860
O700        O  0.84487094  0.14780673  0.50998815    -0.73840
O701        O  0.88879504  0.10205469  0.54114734    -0.62460
O702        O  0.89231856  0.19101105  0.48226930    -0.70870
O703        O  0.89487204  0.17505227  0.38251669    -0.70420
O704        O  0.88982863  0.08792940  0.43990451    -0.61680
O705        O  0.84577850  0.13340108  0.40906351    -0.74190
O706        O  0.93944613  0.12958736  0.41646180    -0.72970
Cu707      Cu  0.89056282  0.14720148  0.51580343     1.04560
Cu708      Cu  0.89260247  0.13100496  0.40844302     1.04330
C709        C  0.95239952  0.13645332  0.46915275     0.93340
C710        C  0.83061767  0.14067200  0.45929004     0.92480
C711        C  0.88808354  0.08095924  0.49860539     0.84620
C712        C  0.89392667  0.19700149  0.42279069     0.90890
O713        O  0.63446592  0.67880664  0.43334397    -0.72860
O714        O  0.63638900  0.58513868  0.42873645    -0.73840
O715        O  0.67923738  0.63248623  0.45983599    -0.62460
O716        O  0.59170264  0.63118560  0.40493408    -0.70870
O717        O  0.60519787  0.63288390  0.30346408    -0.70420
O718        O  0.69445276  0.63505768  0.35942748    -0.61680
O719        O  0.65142531  0.58820366  0.32831462    -0.74190
O720        O  0.64860307  0.67982976  0.33223658    -0.72970
Cu721      Cu  0.63494295  0.63189594  0.43521824     1.04560
Cu722      Cu  0.65047831  0.63404189  0.32742643     1.04330
C723        C  0.64102482  0.69406394  0.38296215     0.93340
C724        C  0.64429870  0.57197139  0.37673181     0.92480
C725        C  0.70085463  0.63389683  0.41866606     0.84620
C726        C  0.58425697  0.63162503  0.34642955     0.90890
O727        O  0.89271043  0.58475684  0.49227135    -0.72860
O728        O  0.89294834  0.67847284  0.48706551    -0.73840
O729        O  0.93678837  0.63171540  0.51390304    -0.62460
O730        O  0.84883733  0.63161668  0.46271889    -0.70870
O731        O  0.83444172  0.63295694  0.56377833    -0.70420
O732        O  0.92444640  0.63403413  0.61587607    -0.61680
O733        O  0.87923862  0.67944120  0.58847380    -0.74190
O734        O  0.87977217  0.58792703  0.59403030    -0.72970
Cu735      Cu  0.89324178  0.63160597  0.48544662     1.04560
Cu736      Cu  0.87886980  0.63364188  0.59397021     1.04330
C737        C  0.88702068  0.57175012  0.54559156     0.93340
C738        C  0.88626556  0.69368164  0.53748925     0.92480
C739        C  0.94492043  0.63256920  0.57196685     0.84620
C740        C  0.82757487  0.63235231  0.50469388     0.90890
O741        O  0.63634806  0.93646278  0.32908038    -0.72860
O742        O  0.63415081  0.84290809  0.65946208    -0.73840
O743        O  0.59145831  0.89072534  0.35396370    -0.62460
O744        O  0.67892050  0.88878478  0.63195955    -0.70870
O745        O  0.69408549  0.88655966  0.39869885    -0.70420
O746        O  0.60443187  0.88987810  0.45546513    -0.61680
O747        O  0.64740950  0.84216463  0.42760492    -0.74190
O748        O  0.65134923  0.93389161  0.42928359    -0.72970
Cu749      Cu  0.63472212  0.88970689  0.65685105     1.04560
Cu750      Cu  0.64988048  0.88806358  0.43126336     1.04330
C751        C  0.64426589  0.94987736  0.38066582     0.93340
C752        C  0.64027590  0.82785669  0.37681594     0.92480
C753        C  0.58372001  0.89112746  0.41241097     0.84620
C754        C  0.70053407  0.88738498  0.33926827     0.90890
O755        O  0.89279254  0.84243936  0.59455947    -0.72860
O756        O  0.89332298  0.93598997  0.59193918    -0.73840
O757        O  0.84955814  0.88954031  0.62415712    -0.62460
O758        O  0.93673686  0.88834950  0.56490214    -0.70870
O759        O  0.92245216  0.88879370  0.46390456    -0.70420
O760        O  0.83358125  0.88714753  0.52462595    -0.61680
O761        O  0.87674738  0.93377234  0.49274154    -0.74190
O762        O  0.87883547  0.84202576  0.49353477    -0.72970
Cu763      Cu  0.89365951  0.88916643  0.59733693     1.04560
Cu764      Cu  0.87732935  0.88797573  0.49024931     1.04330
C765        C  0.88605843  0.82751749  0.54394261     0.93340
C766        C  0.88463253  0.94958325  0.54117921     0.92480
C767        C  0.82760327  0.88819591  0.58422010     0.84620
C768        C  0.94362538  0.88794950  0.50597291     0.90890
C769        C  0.75736225  0.88927457  0.69356017    -0.21220
C770        C  0.73305460  0.88702139  0.65005457    -0.09270
C771        C  0.74019759  0.88497628  0.58473502     0.29590
C772        C  0.77086495  0.88533275  0.56397735    -0.21220
C773        C  0.79518107  0.88777301  0.60739313    -0.09280
C774        C  0.78807038  0.88967215  0.67275689     0.29600
F775        F  0.81066195  0.89207997  0.71687510    -0.19800
H776        H  0.75259314  0.89103989  0.41053973     0.17960
H777        H  0.77557259  0.88364228  0.51362970     0.17970
F778        F  0.71765388  0.88252030  0.54051466    -0.19790
C779        C  0.88713304  0.77754644  0.48435140    -0.21220
C780        C  0.88664392  0.79328659  0.54276470    -0.09270
C781        C  0.88637397  0.77595199  0.59900080     0.29590
C782        C  0.88627461  0.74371104  0.59654555    -0.21220
C783        C  0.88673806  0.72793647  0.53817614    -0.09280
C784        C  0.88732668  0.74526371  0.48190183     0.29600
F785        F  0.88753685  0.73109626  0.42455992    -0.19800
H786        H  0.88748611  0.79032390  0.44038615     0.17960
H787        H  0.88586325  0.73099738  0.64058411     0.17970
F788        F  0.88554379  0.79007997  0.65637132    -0.19790
C789        C  0.63407368  0.77799479  0.43501225    -0.21220
C790        C  0.63932796  0.79369025  0.37755915    -0.09270
C791        C  0.64460176  0.77641571  0.32214677     0.29590
C792        C  0.64503770  0.74417522  0.32458575    -0.21220
C793        C  0.63994633  0.72835515  0.38208902    -0.09280
C794        C  0.63416839  0.74570613  0.43738789     0.29600
F795        F  0.62885853  0.73163377  0.49387293    -0.19800
H796        H  0.62972572  0.79079455  0.47830073     0.17960
H797        H  0.64963401  0.73158395  0.28116573     0.17970
F798        F  0.65044243  0.79062579  0.26600672    -0.19790
C799        C  0.74027497  0.62461711  0.50282706    -0.21220
C800        C  0.73332319  0.63384605  0.44046078    -0.09270
C801        C  0.75760243  0.64279534  0.39999142     0.29590
C802        C  0.78806550  0.64214463  0.42136744    -0.21220
C803        C  0.79502421  0.63285579  0.48364053    -0.09280
C804        C  0.77077233  0.62401267  0.52423014     0.29600
F805        F  0.77655116  0.61383513  0.58384573    -0.19800
H806        H  0.72209077  0.61740093  0.53501211     0.17960
H807        H  0.80625824  0.64930583  0.38914337     0.17970
F808        F  0.75193624  0.65290054  0.34027360    -0.19790
C809        C  0.86735078  0.99688453  0.48562791    -0.21220
C810        C  0.88349405  0.98372068  0.53648757    -0.09270
C811        C  0.89907144  0.00339415  0.57908390     0.29590
C812        C  0.89952271  0.03544409  0.56867266    -0.21220
C813        C  0.88471110  0.04809009  0.51555325    -0.09280
C814        C  0.86793606  0.02854804  0.47516184     0.29600
F815        F  0.85216194  0.04006311  0.42495826    -0.19800
H816        H  0.85455993  0.98255453  0.45277787     0.17960
H817        H  0.91251057  0.05017360  0.60042530     0.17970
F818        F  0.91494621  0.99168151  0.62886956    -0.19790
C819        C  0.88675382  0.48464004  0.51802584    -0.21220
C820        C  0.89392324  0.47402740  0.57939198    -0.09270
C821        C  0.90036401  0.49590257  0.62709038     0.29590
C822        C  0.89821527  0.52727813  0.61459858    -0.21220
C823        C  0.89008716  0.53802511  0.55425340    -0.09280
C824        C  0.88496261  0.51648079  0.50535898     0.29600
F825        F  0.87704752  0.52610039  0.44641706    -0.19800
H826        H  0.88183361  0.46835752  0.48035674     0.17960
H827        H  0.90306954  0.54334148  0.65274872     0.17970
F828        F  0.90882008  0.48716654  0.68635490    -0.19790
C829        C  0.89398064  0.25381914  0.44384479    -0.21220
C830        C  0.89426243  0.22942321  0.40003007    -0.09270
C831        C  0.89422943  0.23644478  0.33461423     0.29590
C832        C  0.89373791  0.26713419  0.31414575    -0.21220
C833        C  0.89331964  0.29152367  0.35800039    -0.09280
C834        C  0.89354660  0.28448372  0.42340460     0.29600
F835        F  0.89324991  0.30711234  0.46801972    -0.19800
H836        H  0.89399649  0.24915887  0.49424337     0.17960
H837        H  0.89366617  0.27182301  0.59709323     0.17970
F838        F  0.89444915  0.21377612  0.29008826    -0.19790
C839        C  0.65966590  0.99714288  0.43914605    -0.21220
C840        C  0.64498589  0.98400521  0.38631059    -0.09270
C841        C  0.62996475  0.00364476  0.34299773     0.29590
C842        C  0.62866284  0.03559837  0.35442365    -0.21220
C843        C  0.64201947  0.04821841  0.40931032    -0.09280
C844        C  0.65822821  0.02871540  0.45063817     0.29600
F845        F  0.67277305  0.04015553  0.50256692    -0.19800
H846        H  0.67194483  0.98284550  0.47272841     0.17960
H847        H  0.61623892  0.05026679  0.32176670     0.17970
F848        F  0.61544853  0.99196284  0.62467350    -0.19790
C849        C  0.74752967  0.13972623  0.51758511    -0.21220
C850        C  0.73104955  0.14052789  0.46059027    -0.09270
C851        C  0.74766867  0.14116127  0.40288958     0.29590
C852        C  0.77995104  0.14105274  0.40270185    -0.21220
C853        C  0.79639751  0.14060129  0.45975712    -0.09280
C854        C  0.77977296  0.13990287  0.51741139     0.29600
F855        F  0.79461614  0.13881864  0.57380634    -0.19800
H856        H  0.73539910  0.13908710  0.56245415     0.17960
H857        H  0.79214287  0.14158925  0.35789333     0.17970
F858        F  0.73280226  0.14148557  0.34648592    -0.19790
C859        C  0.62984332  0.48591845  0.40285459    -0.21220
C860        C  0.64274634  0.47363209  0.68028079    -0.09270
C861        C  0.65814757  0.49351245  0.63800136     0.29590
C862        C  0.65927495  0.52507360  0.64971066    -0.21220
C863        C  0.64508779  0.53785881  0.37040002    -0.09280
C864        C  0.63084067  0.51787088  0.41452448     0.29600
F865        F  0.61687045  0.52918062  0.46741020    -0.19800
H866        H  0.61803784  0.47097121  0.43625066     0.17960
H867        H  0.67097540  0.53962376  0.61541793     0.17970
F868        F  0.67223689  0.48246088  0.58493875    -0.19790
C869        C  0.74927549  0.38304418  0.57141249    -0.21220
C870        C  0.73238125  0.38226004  0.62826715    -0.09270
C871        C  0.74857983  0.38224593  0.68613117     0.29590
C872        C  0.78084685  0.38277531  0.35332698    -0.21220
C873        C  0.79773735  0.38305405  0.62979001    -0.09280
C874        C  0.78154013  0.38328725  0.57193565     0.29600
F875        F  0.79682145  0.38412438  0.51570253    -0.19800
H876        H  0.73746162  0.38322635  0.52641250     0.17960
H877        H  0.79267323  0.38260033  0.39831453     0.17970
F878        F  0.73329878  0.38210512  0.40905274    -0.19790
C879        C  0.62501298  0.23713130  0.58402966    -0.21220
C880        C  0.63434790  0.23025640  0.52150559    -0.09270
C881        C  0.64400925  0.25452846  0.48185793     0.29590
C882        C  0.64418425  0.28489504  0.50437744    -0.21220
C883        C  0.63504962  0.29173455  0.56699806    -0.09280
C884        C  0.62523318  0.26751264  0.60656834     0.29600
F885        F  0.61502837  0.27322381  0.66640343    -0.19800
H886        H  0.61726865  0.21895631  0.61558796     0.17960
H887        H  0.65199111  0.30307127  0.47288183     0.17970
F888        F  0.65426112  0.24889690  0.42202667    -0.19790
C889        C  0.00712474  0.13600895  0.42697666    -0.21220
C890        C  0.98617918  0.13362961  0.47798106    -0.09270
C891        C  0.99778032  0.12912609  0.53950958     0.29590
C892        C  0.02936090  0.12813830  0.55005894    -0.21220
C893        C  0.05055881  0.13157739  0.49992324    -0.09280
C894        C  0.03914711  0.13510809  0.43775973     0.29600
F895        F  0.05875094  0.13830110  0.38779178    -0.19800
H896        H  0.99875374  0.13934724  0.37915909     0.17960
H897        H  0.03713950  0.12482898  0.59832292     0.17970
F898        F  0.97857755  0.12535029  0.59004487    -0.19790
C899        C  0.52733712  0.15554251  0.40312476    -0.21220
C900        C  0.54063101  0.13928084  0.45367543    -0.09270
C901        C  0.52109451  0.12322198  0.49604871     0.29590
C902        C  0.48903584  0.12255057  0.48584472    -0.21220
C903        C  0.47625547  0.13762848  0.43314334    -0.09280
C904        C  0.49569040  0.15477371  0.39289750     0.29600
F905        F  0.48406478  0.17091206  0.34326025    -0.19800
H906        H  0.54154995  0.16870986  0.37049364     0.17960
H907        H  0.47440326  0.10931536  0.51754706     0.17970
F908        F  0.53296005  0.10717838  0.54548293    -0.19790
C909        C  0.28805086  0.14252484  0.59117516    -0.21220
C910        C  0.29466635  0.13316502  0.65358014    -0.09270
C911        C  0.27028084  0.12354379  0.35971917     0.29590
C912        C  0.23998178  0.12365827  0.67064793    -0.21220
C913        C  0.23330809  0.13313805  0.60832588    -0.09280
C914        C  0.25772279  0.14267253  0.56875956     0.29600
F915        F  0.25228425  0.15297042  0.50909315    -0.19800
H916        H  0.30637890  0.15017443  0.55976332     0.17960
H917        H  0.22171131  0.11594783  0.36880105     0.17970
F918        F  0.27575102  0.11310802  0.41927827    -0.19790
C919        C  0.03370506  0.36573550  0.56217903    -0.21220
C920        C  0.05242370  0.38365704  0.60183259    -0.09270
C921        C  0.03906983  0.39867526  0.65440679     0.29590
C922        C  0.00700952  0.39703151  0.66456725    -0.21220
C923        C  0.98811108  0.38023164  0.62264533    -0.09280
C924        C  0.00207626  0.36375311  0.57252512     0.29600
F925        F  0.98518199  0.34586409  0.53268234    -0.19800
H926        H  0.04361971  0.35336414  0.52227260     0.17960
H927        H  0.99687414  0.40977823  0.70367262     0.17970
F928        F  0.05663127  0.41622273  0.69358666    -0.19790
C929        C  0.14293840  0.24378395  0.49208958    -0.21220
C930        C  0.14143830  0.22801345  0.55034242    -0.09270
C931        C  0.14017317  0.24536421  0.60666542     0.29590
C932        C  0.14071019  0.27763754  0.60440663    -0.21220
C933        C  0.14225155  0.29335788  0.54613736    -0.09280
C934        C  0.14318037  0.27603128  0.48982184     0.29600
F935        F  0.14506265  0.29017357  0.43262592    -0.19800
H936        H  0.14401270  0.23107500  0.44800143     0.17960
H937        H  0.13971601  0.29042757  0.64841340     0.17970
F938        F  0.13891426  0.23123758  0.66393150    -0.19790
C939        C  0.52865108  0.36752181  0.35643877    -0.21220
C940        C  0.54193187  0.38236582  0.63705985    -0.09270
C941        C  0.52236491  0.39708013  0.59319884     0.29590
C942        C  0.49030292  0.39787186  0.60394096    -0.21220
C943        C  0.47754321  0.38427319  0.32531376    -0.09280
C944        C  0.49701734  0.36843158  0.36720931     0.29600
F945        F  0.48546136  0.35368345  0.41898673    -0.19800
H946        H  0.54285390  0.35538142  0.39038357     0.17960
H947        H  0.47564131  0.41004879  0.57090219     0.17970
F948        F  0.53417991  0.41164771  0.54154363    -0.19790
C949        C  0.39415419  0.24517672  0.32750276    -0.21220
C950        C  0.38603128  0.22875495  0.38251350    -0.09270
C951        C  0.37898284  0.24547833  0.43838448     0.29590
C952        C  0.38000819  0.27775883  0.43862979    -0.21220
C953        C  0.38754840  0.29402155  0.38325161    -0.09280
C954        C  0.39482586  0.27741187  0.32766140     0.29600
F955        F  0.40314296  0.29231543  0.27357358    -0.19800
H956        H  0.39996937  0.23308873  0.28405167     0.17960
H957        H  0.37416435  0.29007437  0.48181170     0.17970
F958        F  0.37081876  0.23082071  0.49283176    -0.19790
C959        C  0.27120083  0.38858109  0.39636682    -0.21220
C960        C  0.29561010  0.38958476  0.43979961    -0.09270
C961        C  0.28861503  0.39052649  0.50529279     0.29590
C962        C  0.25797394  0.39037386  0.52623293    -0.21220
C963        C  0.23356363  0.38934237  0.48283369    -0.09280
C964        C  0.24053417  0.38851214  0.41733527     0.29600
F965        F  0.21783957  0.38746185  0.37322639    -0.19800
H966        H  0.27585595  0.38781250  0.34592743     0.17960
H967        H  0.25334417  0.39113114  0.57668437     0.17970
F968        F  0.31126617  0.39148394  0.54951368    -0.19790
C969        C  0.12827980  0.98577244  0.56964624    -0.21220
C970        C  0.14235131  0.97344654  0.51498875    -0.09270
C971        C  0.15895117  0.99319774  0.47442922     0.29590
C972        C  0.16004724  0.02474050  0.48631601    -0.21220
C973        C  0.14463928  0.03759751  0.53882283    -0.09280
C974        C  0.12926258  0.01770930  0.58150387     0.29600
F975        F  0.11408615  0.02913545  0.63286053    -0.19800
H976        H  0.11551555  0.97089919  0.60167034     0.17960
H977        H  0.17265787  0.03923695  0.45330291     0.17970
F978        F  0.17414788  0.98202540  0.42277800    -0.19790
C979        C  0.02202779  0.90013884  0.42756629    -0.21220
C980        C  0.04087587  0.88252455  0.46795903    -0.09270
C981        C  0.02682467  0.86491914  0.51630809     0.29590
C982        C  0.99516980  0.86649499  0.52651682    -0.21220
C983        C  0.97648337  0.88510633  0.48842056    -0.09280
C984        C  0.98992153  0.90137687  0.43756933     0.29600
F985        F  0.97238075  0.91968057  0.40003823    -0.19800
H986        H  0.03222426  0.91374170  0.38981190     0.17960
H987        H  0.98519211  0.85321810  0.56506577     0.17970
F988        F  0.04365051  0.84619708  0.55443351    -0.19790
C989        C  0.13060955  0.53564706  0.52108194    -0.21220
C990        C  0.14399500  0.54834282  0.57587251    -0.09270
C991        C  0.15906926  0.52869046  0.61866896     0.29590
C992        C  0.15943850  0.49697768  0.60857064    -0.21220
C993        C  0.14479882  0.48382111  0.55566700    -0.09280
C994        C  0.13086007  0.50355414  0.51101156     0.29600
F995        F  0.11652665  0.49190169  0.45911362    -0.19800
H996        H  0.11893385  0.55041025  0.48744723     0.17960
H997        H  0.17095323  0.48263324  0.64319616     0.17970
F998        F  0.17346598  0.54012157  0.67078541    -0.19790
C999        C  0.98928781  0.63823419  0.64841371    -0.21220
C1000       C  0.97834718  0.63181951  0.58692805    -0.09270
C1001       C  0.99991942  0.62518538  0.53854598     0.29590
C1002       C  0.03137913  0.62634394  0.55066475    -0.21220
C1003       C  0.04243139  0.63369246  0.61122590    -0.09280
C1004       C  0.02115273  0.63908328  0.66063182     0.29600
F1005       F  0.03110219  0.64648762  0.38633285    -0.19800
H1006       H  0.97325086  0.64325114  0.68661888     0.17960
H1007       H  0.04726532  0.62148227  0.51205954     0.17970
F1008       F  0.99081176  0.61751502  0.47902311    -0.19790
C1009       C  0.13680956  0.75491942  0.30974388    -0.21220
C1010       C  0.13253366  0.73056564  0.35274048    -0.09270
C1011       C  0.12818313  0.73760220  0.41763941     0.29590
C1012       C  0.12866843  0.76819784  0.43863922    -0.21220
C1013       C  0.13334628  0.79251936  0.39579403    -0.09280
C1014       C  0.13720101  0.78555049  0.33076386     0.29600
F1015       F  0.14194178  0.80819489  0.28733152    -0.19800
H1016       H  0.14034299  0.75025643  0.25975603     0.17960
H1017       H  0.12529050  0.77284056  0.48868297     0.17970
F1018       F  0.12346780  0.71501948  0.46123001    -0.19790
C1019       C  0.39999036  0.01934332  0.34724953    -0.21220
C1020       C  0.38261755  0.03837408  0.38813071    -0.09270
C1021       C  0.36492990  0.02456004  0.43667986     0.29590
C1022       C  0.36632197  0.99289538  0.44676871    -0.21220
C1023       C  0.38483483  0.97405602  0.40830602    -0.09280
C1024       C  0.40106740  0.98728136  0.35713710     0.29600
F1025       F  0.41934529  0.96959007  0.31936912    -0.19800
H1026       H  0.41366330  0.02937903  0.30937406     0.17960
H1027       H  0.35313969  0.98306207  0.48564689     0.17970
F1028       F  0.34645356  0.04165882  0.47525932    -0.19790
C1029       C  0.53922480  0.88510391  0.48932631    -0.21220
C1030       C  0.55042199  0.89292680  0.42854960    -0.09270
C1031       C  0.52913610  0.90139273  0.38134374     0.29590
C1032       C  0.49763450  0.90018295  0.39342370    -0.21220
C1033       C  0.48629570  0.89101709  0.45284661    -0.09280
C1034       C  0.50729278  0.88424248  0.50158382     0.29600
F1035       F  0.49701291  0.87526623  0.55962240    -0.19800
H1036       H  0.55508033  0.87872196  0.52662674     0.17960
H1037       H  0.48191717  0.90620837  0.35556674     0.17970
F1038       F  0.53858730  0.91067841  0.32286445    -0.19790
C1039       C  0.27957273  0.88186505  0.51912071    -0.21220
C1040       C  0.29661306  0.88051265  0.46247940    -0.09270
C1041       C  0.28055085  0.87953095  0.40446505     0.29590
C1042       C  0.24827715  0.87995364  0.40359124    -0.21220
C1043       C  0.23126510  0.88104840  0.46027285    -0.09280
C1044       C  0.24731694  0.88195427  0.51826465     0.29600
F1045       F  0.23189788  0.88357035  0.57428357    -0.19800
H1046       H  0.29126224  0.88283189  0.56423257     0.17960
H1047       H  0.23654114  0.87915364  0.35851300     0.17970
F1048       F  0.29596317  0.87869117  0.34837591    -0.19790
C1049       C  0.37579024  0.52859893  0.62772926    -0.21220
C1050       C  0.38616697  0.54861105  0.67545930    -0.09270
C1051       C  0.39490762  0.53614010  0.40103557     0.29590
C1052       C  0.39422331  0.50402656  0.41059657    -0.21220
C1053       C  0.38464985  0.48399213  0.36175635    -0.09280
C1054       C  0.37488343  0.49688381  0.63713989     0.29600
F1055       F  0.36470952  0.47898205  0.58858233    -0.19800
H1056       H  0.36847842  0.53749791  0.58219208     0.17960
H1057       H  0.40167191  0.49484346  0.45576163     0.17970
F1058       F  0.40514764  0.55473838  0.44835791    -0.19790
C1059       C  0.50778311  0.63867808  0.59164352    -0.21220
C1060       C  0.48680588  0.63302817  0.64141842    -0.09270
C1061       C  0.49821687  0.62478574  0.36803039     0.29590
C1062       C  0.52977930  0.62368721  0.37880641    -0.21220
C1063       C  0.55099805  0.63073101  0.33034635    -0.09280
C1064       C  0.53974916  0.63767725  0.60263615     0.29600
F1065       F  0.55943013  0.64451955  0.55436615    -0.19800
H1066       H  0.49945966  0.64487948  0.54499387     0.17960
H1067       H  0.53755246  0.61760141  0.42593512     0.17970
F1068       F  0.47880469  0.61764604  0.41666174    -0.19790
C1069       C  0.28132838  0.64343222  0.68317215    -0.21220
C1070       C  0.29735442  0.64359570  0.62496247    -0.09270
C1071       C  0.28031257  0.64384164  0.56849609     0.29590
C1072       C  0.24806295  0.64382823  0.57054528    -0.21220
C1073       C  0.23203000  0.64326488  0.62873585    -0.09280
C1074       C  0.24907097  0.64312655  0.35188240     0.29600
F1075       F  0.23464049  0.64299029  0.40905047    -0.19800
H1076       H  0.29385149  0.64316924  0.39400872     0.17960
H1077       H  0.23555530  0.64394633  0.52635505     0.17970
F1078       F  0.29473725  0.64441720  0.51133325    -0.19790
C1079       C  0.40114166  0.76924487  0.48367019    -0.21220
C1080       C  0.39629527  0.79343566  0.52687872    -0.09270
C1081       C  0.39243400  0.78627881  0.59178803     0.29590
C1082       C  0.39287094  0.75558788  0.61228822    -0.21220
C1083       C  0.39719103  0.73136198  0.56887289    -0.09280
C1084       C  0.40166809  0.73859775  0.50414746     0.29600
F1085       F  0.40648644  0.71615287  0.46019802    -0.19800
H1086       H  0.40451763  0.77401831  0.43369854     0.17960
H1087       H  0.38928485  0.75077552  0.66218139     0.17970
F1088       F  0.38758393  0.80878410  0.63558014    -0.19790
O1089       O  0.43725835  0.64519321  0.01460137    -0.72860
O1090       O  0.34588133  0.64949258  0.00891914    -0.73840
O1091       O  0.38918278  0.60250915  0.70399208    -0.62460
O1092       O  0.39421493  0.69225732  0.98319567    -0.70870
O1093       O  0.39626616  0.67726202  0.88276268    -0.70420
O1094       O  0.39029083  0.58967846  0.93546470    -0.61680
O1095       O  0.34666892  0.63605845  0.90742153    -0.74190
O1096       O  0.44004785  0.63091426  0.91362747    -0.72970
Cu1097     Cu  0.39163779  0.64797732  0.01446051     1.04560
Cu1098     Cu  0.39337237  0.63304575  0.90630396     1.04330
C1099       C  0.45317445  0.63670514  0.96661582     0.93340
C1100       C  0.33157374  0.64315907  0.95780164     0.92480
C1101       C  0.38873356  0.58188937  0.99375854     0.84620
C1102       C  0.39598896  0.69880425  0.92396840     0.90890
O1103       O  0.34595943  0.87352227  0.74745278    -0.72860
O1104       O  0.43745064  0.87831696  0.74499872    -0.73840
O1105       O  0.39422954  0.83158418  0.77766504    -0.62460
O1106       O  0.38962000  0.92009348  0.71735854    -0.70870
O1107       O  0.38898376  0.93470979  0.81837565    -0.70420
O1108       O  0.39437754  0.84779634  0.87739357    -0.61680
O1109       O  0.43865518  0.89385825  0.84534876    -0.74190
O1110       O  0.34518417  0.88860571  0.84795247    -0.72970
Cu1111     Cu  0.39186523  0.87520478  0.74350293     1.04560
Cu1112     Cu  0.39182956  0.89174366  0.85079623     1.04330
C1113       C  0.33085345  0.88077748  0.79735775     0.93340
C1114       C  0.45260197  0.88733054  0.79335263     0.92480
C1115       C  0.39496773  0.82576913  0.83725434     0.84620
C1116       C  0.38818536  0.94136019  0.75942598     0.90890
O1117       O  0.18354871  0.64904624  0.91138280    -0.72860
O1118       O  0.09218888  0.64487880  0.90483329    -0.73840
O1119       O  0.13535429  0.69172962  0.93762969    -0.62460
O1120       O  0.14020656  0.60213767  0.88176067    -0.70870
O1121       O  0.13898382  0.58897558  0.98342865    -0.70420
O1122       O  0.13320737  0.67641588  0.70443406    -0.61680
O1123       O  0.08921878  0.63043120  0.67229152    -0.74190
O1124       O  0.18266286  0.63527099  0.67926889    -0.72970
Cu1125     Cu  0.13781660  0.64755058  0.90545360     1.04560
Cu1126     Cu  0.13593248  0.63229893  0.68001974     1.04330
C1127       C  0.19780811  0.64260273  0.96243895     0.93340
C1128       C  0.07614549  0.63663879  0.95281033     0.92480
C1129       C  0.13359940  0.69808581  0.66365661     0.84620
C1130       C  0.14084266  0.58142885  0.92501383     0.90890
O1131       O  0.18215116  0.87404127  0.84245292    -0.72860
O1132       O  0.09064423  0.87543216  0.84478922    -0.73840
O1133       O  0.13521278  0.83060855  0.81208032    -0.62460
O1134       O  0.13745439  0.91940469  0.87269115    -0.70870
O1135       O  0.13778768  0.93384385  0.77173772    -0.70420
O1136       O  0.13403859  0.84689331  0.71253881    -0.61680
O1137       O  0.08879284  0.89170185  0.74527209    -0.74190
O1138       O  0.18252403  0.88869977  0.74175036    -0.72970
Cu1139     Cu  0.13631174  0.87430864  0.84642873     1.04560
Cu1140     Cu  0.13572623  0.89086538  0.73935736     1.04330
C1141       C  0.19704769  0.88124867  0.79230541     0.93340
C1142       C  0.07501782  0.88332947  0.79636061     0.92480
C1143       C  0.13422641  0.82482912  0.75245652     0.84620
C1144       C  0.13882645  0.94063997  0.83060550     0.90890
O1145       O  0.39348161  0.43739987  0.75529044    -0.72860
O1146       O  0.39308015  0.34376489  0.76579499    -0.73840
O1147       O  0.43717093  0.38928260  0.73360241    -0.62460
O1148       O  0.34982915  0.39146662  0.79034414    -0.70870
O1149       O  0.33427218  0.38743125  0.69075342    -0.70420
O1150       O  0.42364458  0.38737246  0.63228147    -0.61680
O1151       O  0.37967368  0.34172089  0.66441601    -0.74190
O1152       O  0.37797720  0.43303365  0.65578148    -0.72970
Cu1153     Cu  0.39392519  0.39063674  0.76473259     1.04560
Cu1154     Cu  0.37831795  0.38736781  0.65737372     1.04330
C1155       C  0.38538088  0.44991267  0.70290857     0.93340
C1156       C  0.38677163  0.32810615  0.71586163     0.92480
C1157       C  0.44451820  0.38738045  0.67504172     0.84620
C1158       C  0.32805348  0.38951336  0.75015544     0.90890
O1159       O  0.13526786  0.43612250  0.83270462    -0.72860
O1160       O  0.13624424  0.34256565  0.82823889    -0.73840
O1161       O  0.09211494  0.38796875  0.85878746    -0.62460
O1162       O  0.17920072  0.39015815  0.79956755    -0.70870
O1163       O  0.19525259  0.38789085  0.89904740    -0.70420
O1164       O  0.10640266  0.38799238  0.95978410    -0.61680
O1165       O  0.15041398  0.34199447  0.92914735    -0.74190
O1166       O  0.15161147  0.43375937  0.93200911    -0.72970
Cu1167     Cu  0.13515561  0.38930000  0.82638299     1.04560
Cu1168     Cu  0.15150457  0.38794251  0.93344768     1.04330
C1169       C  0.14377109  0.44965711  0.88378134     0.93340
C1170       C  0.14306151  0.32757246  0.87860488     0.92480
C1171       C  0.08523964  0.38708073  0.91769252     0.84620
C1172       C  0.20117956  0.38912301  0.83945441     0.90890
O1173       O  0.39232046  0.08606128  0.66577518    -0.72860
O1174       O  0.39241748  0.17966971  0.99736382    -0.73840
O1175       O  0.43614247  0.13357414  0.69152088    -0.62460
O1176       O  0.34879087  0.13279411  0.96867200    -0.70870
O1177       O  0.33305971  0.13378141  0.73558525    -0.70420
O1178       O  0.42226069  0.13402438  0.79299594    -0.61680
O1179       O  0.37769406  0.17983283  0.76481891    -0.74190
O1180       O  0.37699493  0.08822843  0.76615664    -0.72970
Cu1181     Cu  0.39296572  0.13294247  0.99402566     1.04560
Cu1182     Cu  0.37695863  0.13392970  0.76835694     1.04330
C1183       C  0.38406333  0.07246841  0.71706466     0.93180
C1184       C  0.38529552  0.19448876  0.71470211     0.92480
C1185       C  0.44328409  0.13465743  0.75012692     0.84620
C1186       C  0.32697725  0.13321601  0.67614557     0.90890
O1187       O  0.13527262  0.17858338  0.93480822    -0.72860
O1188       O  0.13586652  0.08493847  0.93014682    -0.73840
O1189       O  0.17928795  0.13173616  0.96071014    -0.62460
O1190       O  0.09169918  0.13161574  0.90694679    -0.70870
O1191       O  0.10480397  0.13275131  0.80528242    -0.70420
O1192       O  0.19446534  0.13447729  0.86029378    -0.61680
O1193       O  0.15100945  0.08783361  0.82975284    -0.74190
O1194       O  0.14875820  0.17944802  0.83329120    -0.72970
Cu1195     Cu  0.13501890  0.13170466  0.93661915     1.04560
Cu1196     Cu  0.15029453  0.13365819  0.82866803     1.04330
C1197       C  0.14179760  0.19374706  0.88429785     0.93340
C1198       C  0.14379667  0.07169483  0.87824182     0.92480
C1199       C  0.20088866  0.13317958  0.91953544     0.84620
C1200       C  0.08398592  0.13196685  0.84859682     0.90890
O1201       O  0.59176230  0.37534690  0.01359507    -0.72860
O1202       O  0.68337434  0.37439679  0.01073389    -0.73840
O1203       O  0.63845498  0.41971536  0.70633641    -0.62460
O1204       O  0.63647067  0.33036320  0.98238552    -0.70870
O1205       O  0.63560761  0.34582860  0.88217802    -0.70420
O1206       O  0.63826699  0.43337708  0.93828454    -0.61680
O1207       O  0.68347679  0.38863503  0.90979498    -0.74190
O1208       O  0.58982797  0.39051585  0.91334336    -0.72970
Cu1209     Cu  0.63747566  0.37439659  0.01503657     1.04560
Cu1210     Cu  0.63672334  0.39010384  0.90740928     1.04330
C1211       C  0.57608494  0.38285794  0.96492373     0.93340
C1212       C  0.69814535  0.38168254  0.96045349     0.92480
C1213       C  0.63946657  0.44064766  0.99690354     0.84620
C1214       C  0.63567848  0.32411550  0.92296595     0.90890
O1215       O  0.59054580  0.14662807  0.74311559    -0.72860
O1216       O  0.68222690  0.14719012  0.74436808    -0.73840
O1217       O  0.63706716  0.10200949  0.71645128    -0.62460
O1218       O  0.63594339  0.19138743  0.77323710    -0.70870
O1219       O  0.63351555  0.17614559  0.87348573    -0.70420
O1220       O  0.63732017  0.08849437  0.81793136    -0.61680
O1221       O  0.68195546  0.13388998  0.84584366    -0.74190
O1222       O  0.58840953  0.13081799  0.84299124    -0.72970
Cu1223     Cu  0.63637199  0.14734367  0.74083484     1.04560
Cu1224     Cu  0.63521735  0.13181218  0.84855436     1.04330
C1225       C  0.57477382  0.13876920  0.79180690     0.93340
C1226       C  0.69681094  0.14055939  0.79491679     0.92480
C1227       C  0.63840957  0.08115977  0.75931015     0.84620
C1228       C  0.63456448  0.19778411  0.83255920     0.90890
O1229       O  0.93821980  0.37411402  0.91211110    -0.72860
O1230       O  0.84666119  0.37537904  0.91384758    -0.73840
O1231       O  0.89299416  0.41977680  0.88582003    -0.62460
O1232       O  0.89212707  0.33023501  0.94277693    -0.70870
O1233       O  0.89346230  0.34577475  0.70952762    -0.70420
O1234       O  0.89370294  0.43308136  0.98727363    -0.61680
O1235       O  0.84670680  0.38950730  0.68158995    -0.74190
O1236       O  0.94039003  0.38913118  0.67918634    -0.72970
Cu1237     Cu  0.89247889  0.37432805  0.91015658     1.04560
Cu1238     Cu  0.89354739  0.38990464  0.68450379     1.04330
C1239       C  0.95399405  0.38115615  0.96098390     0.93340
C1240       C  0.83196772  0.38268647  0.96419302     0.92480
C1241       C  0.89360083  0.44067763  0.92884515     0.84620
C1242       C  0.89289763  0.32399512  0.66887555     0.90890
O1243       O  0.93617264  0.14535410  0.84968397    -0.72860
O1244       O  0.84487095  0.14780673  0.84332146    -0.73840
O1245       O  0.88879505  0.10205468  0.87448063    -0.62460
O1246       O  0.89231858  0.19101104  0.81560261    -0.70870
O1247       O  0.89487204  0.17505227  0.71584998    -0.70420
O1248       O  0.88982862  0.08792939  0.77323779    -0.61680
O1249       O  0.84577850  0.13340109  0.74239682    -0.74190
O1250       O  0.93944613  0.12958735  0.74979507    -0.72970
Cu1251     Cu  0.89056284  0.14720147  0.84913673     1.04560
Cu1252     Cu  0.89260247  0.13100495  0.74177631     1.04330
C1253       C  0.95239952  0.13645330  0.80248602     0.93340
C1254       C  0.83061768  0.14067201  0.79262335     0.92480
C1255       C  0.88808354  0.08095923  0.83193868     0.84620
C1256       C  0.89392668  0.19700149  0.75612399     0.90890
O1257       O  0.63446592  0.67880664  0.76667730    -0.72860
O1258       O  0.63638900  0.58513868  0.76206976    -0.73840
O1259       O  0.67923738  0.63248623  0.79316931    -0.62460
O1260       O  0.59170264  0.63118561  0.73826739    -0.70870
O1261       O  0.60519787  0.63288391  0.63679740    -0.70420
O1262       O  0.69445277  0.63505768  0.69276081    -0.61680
O1263       O  0.65142531  0.58820367  0.66164794    -0.74190
O1264       O  0.64860307  0.67982976  0.66556991    -0.72970
Cu1265     Cu  0.63494296  0.63189594  0.76855156     1.04560
Cu1266     Cu  0.65047831  0.63404189  0.66075975     1.04330
C1267       C  0.64102482  0.69406394  0.71629549     0.93340
C1268       C  0.64429870  0.57197139  0.71006513     0.92480
C1269       C  0.70085463  0.63389683  0.75199938     0.84620
C1270       C  0.58425698  0.63162504  0.67976287     0.90890
O1271       O  0.89271043  0.58475684  0.82560468    -0.72860
O1272       O  0.89294834  0.67847284  0.82039885    -0.73840
O1273       O  0.93678837  0.63171539  0.84723637    -0.62460
O1274       O  0.84883734  0.63161667  0.79605222    -0.70870
O1275       O  0.83444172  0.63295694  0.89711166    -0.70420
O1276       O  0.92444640  0.63403412  0.94920941    -0.61680
O1277       O  0.87923862  0.67944119  0.92180713    -0.74190
O1278       O  0.87977217  0.58792702  0.92736363    -0.72970
Cu1279     Cu  0.89324178  0.63160596  0.81877995     1.04560
Cu1280     Cu  0.87886980  0.63364188  0.92730355     1.04330
C1281       C  0.88702068  0.57175011  0.87892489     0.93340
C1282       C  0.88626556  0.69368163  0.87082258     0.92480
C1283       C  0.94492043  0.63256920  0.90530019     0.84620
C1284       C  0.82757488  0.63235231  0.83802721     0.90890
O1285       O  0.63634806  0.93646278  0.66241372    -0.72860
O1286       O  0.63415081  0.84290809  0.99279538    -0.73840
O1287       O  0.59145832  0.89072534  0.68729704    -0.62460
O1288       O  0.67892050  0.88878478  0.96529287    -0.70870
O1289       O  0.69408550  0.88655966  0.73203220    -0.70420
O1290       O  0.60443187  0.88987810  0.78879848    -0.61680
O1291       O  0.64740950  0.84216463  0.76093827    -0.74190
O1292       O  0.65134923  0.93389161  0.76261693    -0.72970
Cu1293     Cu  0.63472212  0.88970688  0.99018437     1.04560
Cu1294     Cu  0.64988049  0.88806358  0.76459670     1.04330
C1295       C  0.64426589  0.94987737  0.71399916     0.93340
C1296       C  0.64027591  0.82785670  0.71014928     0.92480
C1297       C  0.58372001  0.89112746  0.74574431     0.84620
C1298       C  0.70053407  0.88738498  0.67260161     0.90890
O1299       O  0.89279254  0.84243936  0.92789280    -0.72860
O1300       O  0.89332297  0.93598997  0.92527249    -0.73840
O1301       O  0.84955814  0.88954030  0.95749044    -0.62460
O1302       O  0.93673686  0.88834949  0.89823546    -0.70870
O1303       O  0.92245216  0.88879369  0.79723788    -0.70420
O1304       O  0.83358125  0.88714752  0.85795926    -0.61680
O1305       O  0.87674738  0.93377233  0.82607485    -0.74190
O1306       O  0.87883547  0.84202575  0.82686810    -0.72970
Cu1307     Cu  0.89365951  0.88916642  0.93067025     1.04560
Cu1308     Cu  0.87732935  0.88797572  0.82358263     1.04330
C1309       C  0.88605843  0.82751748  0.87727594     0.93340
C1310       C  0.88463253  0.94958324  0.87451251     0.92480
C1311       C  0.82760327  0.88819590  0.91755342     0.84620
C1312       C  0.94362538  0.88794949  0.83930623     0.90890
C1313       C  0.75736225  0.88927457  0.02689349    -0.21220
C1314       C  0.73305460  0.88702139  0.98338789    -0.09270
C1315       C  0.74019759  0.88497628  0.91806834     0.29590
C1316       C  0.77086495  0.88533274  0.89731066    -0.21220
C1317       C  0.79518107  0.88777300  0.94072645    -0.09280
C1318       C  0.78807038  0.88967214  0.00609021     0.29600
F1319       F  0.81066195  0.89207996  0.05020842    -0.19800
H1320       H  0.75259315  0.89103989  0.74387308     0.17960
H1321       H  0.77557259  0.88364227  0.84696301     0.17970
F1322       F  0.71765388  0.88252030  0.87384798    -0.19790
C1323       C  0.88713304  0.77754644  0.81768473    -0.21220
C1324       C  0.88664393  0.79328659  0.87609803    -0.09270
C1325       C  0.88637397  0.77595199  0.93233413     0.29590
C1326       C  0.88627462  0.74371103  0.92987888    -0.21220
C1327       C  0.88673807  0.72793646  0.87150947    -0.09280
C1328       C  0.88732668  0.74526370  0.81523517     0.29600
F1329       F  0.88753686  0.73109625  0.75789325    -0.19800
H1330       H  0.88748611  0.79032389  0.77371948     0.17960
H1331       H  0.88586326  0.73099737  0.97391744     0.17970
F1332       F  0.88554380  0.79007997  0.98970466    -0.19790
C1333       C  0.63407365  0.77799480  0.76834558    -0.21220
C1334       C  0.63932797  0.79369026  0.71089249    -0.09270
C1335       C  0.64460181  0.77641572  0.65548013     0.29590
C1336       C  0.64503775  0.74417523  0.65791912    -0.21220
C1337       C  0.63994634  0.72835516  0.71542236    -0.09280
C1338       C  0.63416836  0.74570613  0.77072121     0.29600
F1339       F  0.62885846  0.73163377  0.82720624    -0.19800
H1340       H  0.62972566  0.79079455  0.81163405     0.17960
H1341       H  0.64963410  0.73158396  0.61449911     0.17970
F1342       F  0.65044253  0.79062580  0.59934010    -0.19790
C1343       C  0.74027497  0.62461711  0.83616038    -0.21220
C1344       C  0.73332319  0.63384605  0.77379411    -0.09270
C1345       C  0.75760243  0.64279534  0.73332474     0.29590
C1346       C  0.78806551  0.64214462  0.75470076    -0.21220
C1347       C  0.79502421  0.63285578  0.81697386    -0.09280
C1348       C  0.77077233  0.62401267  0.85756347     0.29600
F1349       F  0.77655116  0.61383512  0.91717905    -0.19800
H1350       H  0.72209078  0.61740092  0.86834543     0.17960
H1351       H  0.80625824  0.64930583  0.72247670     0.17970
F1352       F  0.75193624  0.65290054  0.67360693    -0.19790
C1353       C  0.86735079  0.99688452  0.81896120    -0.21220
C1354       C  0.88349404  0.98372067  0.86982086    -0.09270
C1355       C  0.89907143  0.00339415  0.91241720     0.29590
C1356       C  0.89952270  0.03544409  0.90200595    -0.21220
C1357       C  0.88471110  0.04809008  0.84888653    -0.09280
C1358       C  0.86793606  0.02854803  0.80849512     0.29600
F1359       F  0.85216195  0.04006310  0.75829153    -0.19800
H1360       H  0.85455994  0.98255452  0.78611116     0.17960
H1361       H  0.91251056  0.05017359  0.93375859     0.17970
F1362       F  0.91494620  0.99168151  0.96220286    -0.19790
C1363       C  0.88675381  0.48464004  0.85135917    -0.21220
C1364       C  0.89392324  0.47402740  0.91272531    -0.09270
C1365       C  0.90036400  0.49590257  0.96042371     0.29590
C1366       C  0.89821527  0.52727812  0.94793191    -0.21220
C1367       C  0.89008716  0.53802511  0.88758673    -0.09280
C1368       C  0.88496260  0.51648078  0.83869231     0.29600
F1369       F  0.87704751  0.52610038  0.77975039    -0.19800
H1370       H  0.88183360  0.46835752  0.81369007     0.17960
H1371       H  0.90306954  0.54334148  0.98608205     0.17970
F1372       F  0.90882008  0.48716653  0.01968823    -0.19790
C1373       C  0.89398065  0.25381914  0.77717810    -0.21220
C1374       C  0.89426244  0.22942321  0.73336338    -0.09270
C1375       C  0.89422945  0.23644478  0.66794754     0.29590
C1376       C  0.89373793  0.26713419  0.64747907    -0.21220
C1377       C  0.89331965  0.29152367  0.69133372    -0.09280
C1378       C  0.89354661  0.28448371  0.75673792     0.29600
F1379       F  0.89324992  0.30711233  0.80135304    -0.19800
H1380       H  0.89399651  0.24915887  0.82757669     0.17960
H1381       H  0.89366616  0.27182300  0.93042657     0.17970
F1382       F  0.89444917  0.21377612  0.62342157    -0.19790
C1383       C  0.65966590  0.99714288  0.77247940    -0.21220
C1384       C  0.64498590  0.98400522  0.71964393    -0.09270
C1385       C  0.62996475  0.00364477  0.67633108     0.29590
C1386       C  0.62866284  0.03559837  0.68775700    -0.21220
C1387       C  0.64201948  0.04821841  0.74264367    -0.09280
C1388       C  0.65822821  0.02871541  0.78397152     0.29600
F1389       F  0.67277305  0.04015553  0.83590027    -0.19800
H1390       H  0.67194483  0.98284550  0.80606175     0.17960
H1391       H  0.61623892  0.05026679  0.65510005     0.17970
F1392       F  0.61544853  0.99196284  0.95800683    -0.19790
C1393       C  0.74752968  0.13972625  0.85091844    -0.21220
C1394       C  0.73104956  0.14052790  0.79392361    -0.09270
C1395       C  0.74766868  0.14116128  0.73622291     0.29590
C1396       C  0.77995104  0.14105274  0.73603518    -0.21220
C1397       C  0.79639752  0.14060130  0.79309044    -0.09280
C1398       C  0.77977297  0.13990289  0.85074472     0.29600
F1399       F  0.79461615  0.13881867  0.90713966    -0.19800
H1400       H  0.73539911  0.13908713  0.89578749     0.17960
H1401       H  0.79214287  0.14158925  0.69122666     0.17970
F1402       F  0.73280226  0.14148556  0.67981925    -0.19790
C1403       C  0.62984333  0.48591846  0.73618791    -0.21220
C1404       C  0.64274634  0.47363209  0.01361414    -0.09270
C1405       C  0.65814757  0.49351245  0.97133471     0.29590
C1406       C  0.65927495  0.52507360  0.98304401    -0.21220
C1407       C  0.64508779  0.53785882  0.70373334    -0.09280
C1408       C  0.63084068  0.51787088  0.74785780     0.29600
F1409       F  0.61687046  0.52918063  0.80074352    -0.19800
H1410       H  0.61803785  0.47097122  0.76958399     0.17960
H1411       H  0.67097541  0.53962377  0.94875129     0.17970
F1412       F  0.67223689  0.48246088  0.91827210    -0.19790
C1413       C  0.74927548  0.38304418  0.90474583    -0.21220
C1414       C  0.73238124  0.38226004  0.96160049    -0.09270
C1415       C  0.74857983  0.38224593  0.01946451     0.29590
C1416       C  0.78084685  0.38277531  0.68666030    -0.21220
C1417       C  0.79773735  0.38305405  0.96312334    -0.09280
C1418       C  0.78154013  0.38328725  0.90526899     0.29600
F1419       F  0.79682144  0.38412438  0.84903587    -0.19800
H1420       H  0.73746162  0.38322636  0.85974584     0.17960
H1421       H  0.79267323  0.38260034  0.73164786     0.17970
F1422       F  0.73329878  0.38210513  0.74238606    -0.19790
C1423       C  0.62501298  0.23713131  0.91736301    -0.21220
C1424       C  0.63434790  0.23025640  0.85483894    -0.09270
C1425       C  0.64400924  0.25452846  0.81519127     0.29590
C1426       C  0.64418425  0.28489504  0.83771078    -0.21220
C1427       C  0.63504962  0.29173456  0.90033141    -0.09280
C1428       C  0.62523319  0.26751264  0.93990169     0.29600
F1429       F  0.61502838  0.27322382  0.99973678    -0.19800
H1430       H  0.61726866  0.21895631  0.94892131     0.17960
H1431       H  0.65199111  0.30307127  0.80621516     0.17970
F1432       F  0.65426112  0.24889690  0.75536001    -0.19790
C1433       C  0.00712474  0.13600899  0.76030994    -0.21220
C1434       C  0.98617918  0.13362958  0.81131432    -0.09270
C1435       C  0.99778032  0.12912597  0.87284281     0.29590
C1436       C  0.02936089  0.12813818  0.88339218    -0.21220
C1437       C  0.05055881  0.13157736  0.83325652    -0.09280
C1438       C  0.03914711  0.13510813  0.77109302     0.29600
F1439       F  0.05875095  0.13830124  0.72112510    -0.19800
H1440       H  0.99875375  0.13934735  0.71249239     0.17960
H1441       H  0.03713950  0.12482880  0.93165614     0.17970
F1442       F  0.97857754  0.12535009  0.92337806    -0.19790
C1443       C  0.52733712  0.15554252  0.73645814    -0.21220
C1444       C  0.54063102  0.13928084  0.78700879    -0.09270
C1445       C  0.52109452  0.12322198  0.82938207     0.29590
C1446       C  0.48903585  0.12255057  0.81917808    -0.21220
C1447       C  0.47625547  0.13762849  0.76647670    -0.09280
C1448       C  0.49569040  0.15477372  0.72623087     0.29600
F1449       F  0.48406479  0.17091208  0.67659364    -0.19800
H1450       H  0.54154995  0.16870988  0.70382702     0.17960
H1451       H  0.47440327  0.10931535  0.85088041     0.17970
F1452       F  0.53296006  0.10717837  0.87881627    -0.19790
C1453       C  0.28805085  0.14252484  0.92450849    -0.21220
C1454       C  0.29466634  0.13316503  0.98691347    -0.09270
C1455       C  0.27028085  0.12354378  0.69305250     0.29590
C1456       C  0.23998177  0.12365829  0.00398127    -0.21220
C1457       C  0.23330808  0.13313806  0.94165921    -0.09280
C1458       C  0.25772278  0.14267253  0.90209289     0.29600
F1459       F  0.25228424  0.15297041  0.84242646    -0.19800
H1460       H  0.30637890  0.15017442  0.89309664     0.17960
H1461       H  0.22171132  0.11594782  0.70213438     0.17970
F1462       F  0.27575103  0.11310801  0.75261161    -0.19790
C1463       C  0.03370506  0.36573550  0.89551234    -0.21220
C1464       C  0.05242370  0.38365704  0.93516591    -0.09270
C1465       C  0.03906983  0.39867525  0.98774012     0.29590
C1466       C  0.00700952  0.39703150  0.99790058    -0.21220
C1467       C  0.98811108  0.38023164  0.95597865    -0.09280
C1468       C  0.00207626  0.36375312  0.90585843     0.29600
F1469       F  0.98518198  0.34586410  0.86601565    -0.19800
H1470       H  0.04361971  0.35336415  0.85560590     0.17960
H1471       H  0.99687414  0.40977822  0.03700596     0.17970
F1472       F  0.05663126  0.41622272  0.02692000    -0.19790
C1473       C  0.14293839  0.24378395  0.82542290    -0.21220
C1474       C  0.14143828  0.22801345  0.88367574    -0.09270
C1475       C  0.14017316  0.24536421  0.93999874     0.29590
C1476       C  0.14071018  0.27763753  0.93773995    -0.21220
C1477       C  0.14225154  0.29335788  0.87947068    -0.09280
C1478       C  0.14318036  0.27603128  0.82315516     0.29600
F1479       F  0.14506264  0.29017357  0.76595924    -0.19800
H1480       H  0.14401268  0.23107500  0.78133474     0.17960
H1481       H  0.13971600  0.29042757  0.98174672     0.17970
F1482       F  0.13891425  0.23123758  0.99726482    -0.19790
C1483       C  0.52865109  0.36752182  0.68977212    -0.21220
C1484       C  0.54193186  0.38236582  0.97039318    -0.09270
C1485       C  0.52236491  0.39708014  0.92653217     0.29590
C1486       C  0.49030292  0.39787187  0.93727430    -0.21220
C1487       C  0.47754322  0.38427318  0.65864711    -0.09280
C1488       C  0.49701734  0.36843158  0.70054267     0.29600
F1489       F  0.48546137  0.35368346  0.75232010    -0.19800
H1490       H  0.54285391  0.35538143  0.72371693     0.17960
H1491       H  0.47564131  0.41004880  0.90423553     0.17970
F1492       F  0.53417990  0.41164772  0.87487697    -0.19790
C1493       C  0.39415427  0.24517672  0.66083616    -0.21220
C1494       C  0.38603128  0.22875495  0.71584686    -0.09270
C1495       C  0.37898277  0.24547833  0.77171781     0.29590
C1496       C  0.38000812  0.27775883  0.77196312    -0.21220
C1497       C  0.38754841  0.29402155  0.71658499    -0.09280
C1498       C  0.39482593  0.27741187  0.66099481     0.29600
F1499       F  0.40314311  0.29231543  0.60690704    -0.19800
H1500       H  0.39996949  0.23308873  0.61738511     0.17960
H1501       H  0.37416423  0.29007437  0.81514500     0.17970
F1502       F  0.37081860  0.23082071  0.82616503    -0.19790
C1503       C  0.27120083  0.38858109  0.72970015    -0.21220
C1504       C  0.29561010  0.38958476  0.77313295    -0.09270
C1505       C  0.28861503  0.39052649  0.83862612     0.29590
C1506       C  0.25797394  0.39037386  0.85956626    -0.21220
C1507       C  0.23356363  0.38934237  0.81616703    -0.09280
C1508       C  0.24053417  0.38851213  0.75066860     0.29600
F1509       F  0.21783957  0.38746184  0.70655972    -0.19800
H1510       H  0.27585596  0.38781248  0.67926076     0.17960
H1511       H  0.25334417  0.39113115  0.91001771     0.17970
F1512       F  0.31126617  0.39148395  0.88284702    -0.19790
C1513       C  0.12827980  0.98577245  0.90297957    -0.21220
C1514       C  0.14235131  0.97344654  0.84832208    -0.09270
C1515       C  0.15895117  0.99319773  0.80776255     0.29590
C1516       C  0.16004725  0.02474049  0.81964933    -0.21220
C1517       C  0.14463928  0.03759751  0.87215615    -0.09280
C1518       C  0.12926257  0.01770930  0.91483719     0.29600
F1519       F  0.11408615  0.02913546  0.96619384    -0.19800
H1520       H  0.11551555  0.97089919  0.93500366     0.17960
H1521       H  0.17265788  0.03923695  0.78663624     0.17970
F1522       F  0.17414789  0.98202539  0.75611134    -0.19790
C1523       C  0.02202779  0.90013883  0.76089962    -0.21220
C1524       C  0.04087587  0.88252455  0.80129236    -0.09270
C1525       C  0.02682467  0.86491914  0.84964142     0.29590
C1526       C  0.99516980  0.86649499  0.85985015    -0.21220
C1527       C  0.97648337  0.88510633  0.82175389    -0.09280
C1528       C  0.98992153  0.90137686  0.77090265     0.29600
F1529       F  0.97238075  0.91968056  0.73337154    -0.19800
H1530       H  0.03222426  0.91374169  0.72314522     0.17960
H1531       H  0.98519211  0.85321810  0.89839911     0.17970
F1532       F  0.04365051  0.84619709  0.88776685    -0.19790
C1533       C  0.13060956  0.53564706  0.85441528    -0.21220
C1534       C  0.14399500  0.54834282  0.90920585    -0.09270
C1535       C  0.15906925  0.52869046  0.95200230     0.29590
C1536       C  0.15943849  0.49697767  0.94190398    -0.21220
C1537       C  0.14479882  0.48382110  0.88900033    -0.09280
C1538       C  0.13086007  0.50355414  0.84434490     0.29600
F1539       F  0.11652665  0.49190169  0.79244695    -0.19800
H1540       H  0.11893386  0.55041025  0.82078056     0.17960
H1541       H  0.17095323  0.48263323  0.97652950     0.17970
F1542       F  0.17346597  0.54012157  0.00411876    -0.19790
C1543       C  0.98928780  0.63823419  0.98174705    -0.21220
C1544       C  0.97834717  0.63181951  0.92026139    -0.09270
C1545       C  0.99991942  0.62518537  0.87187932     0.29590
C1546       C  0.03137913  0.62634393  0.88399810    -0.21220
C1547       C  0.04243139  0.63369245  0.94455924    -0.09280
C1548       C  0.02115273  0.63908328  0.99396517     0.29600
F1549       F  0.03110219  0.64648762  0.71966619    -0.19800
H1550       H  0.97325085  0.64325115  0.01995222     0.17960
H1551       H  0.04726532  0.62148226  0.84539289     0.17970
F1552       F  0.99081176  0.61751501  0.81235646    -0.19790
C1553       C  0.13680955  0.75491941  0.64307721    -0.21220
C1554       C  0.13253366  0.73056564  0.68607382    -0.09270
C1555       C  0.12818314  0.73760220  0.75097275     0.29590
C1556       C  0.12866845  0.76819783  0.77197255    -0.21220
C1557       C  0.13334628  0.79251936  0.72912736    -0.09280
C1558       C  0.13720100  0.78555049  0.66409719     0.29600
F1559       F  0.14194175  0.80819489  0.62066485    -0.19800
H1560       H  0.14034297  0.75025643  0.59308936     0.17960
H1561       H  0.12529053  0.77284056  0.82201631     0.17970
F1562       F  0.12346783  0.71501948  0.79456335    -0.19790
C1563       C  0.39999037  0.01934332  0.68058287    -0.21220
C1564       C  0.38261756  0.03837407  0.72146405    -0.09270
C1565       C  0.36492991  0.02456004  0.77001320     0.29590
C1566       C  0.36632198  0.99289538  0.78010205    -0.21220
C1567       C  0.38483484  0.97405602  0.74163936    -0.09280
C1568       C  0.40106740  0.98728136  0.69047044     0.29600
F1569       F  0.41934530  0.96959006  0.65270245    -0.19800
H1570       H  0.41366331  0.02937903  0.64270740     0.17960
H1571       H  0.35313970  0.98306207  0.81898023     0.17970
F1572       F  0.34645357  0.04165881  0.80859266    -0.19790
C1573       C  0.53922480  0.88510391  0.82265965    -0.21220
C1574       C  0.55042199  0.89292680  0.76188293    -0.09270
C1575       C  0.52913610  0.90139273  0.71467708     0.29590
C1576       C  0.49763450  0.90018295  0.72675703    -0.21220
C1577       C  0.48629571  0.89101709  0.78617995    -0.09280
C1578       C  0.50729279  0.88424248  0.83491716     0.29600
F1579       F  0.49701291  0.87526622  0.89295574    -0.19800
H1580       H  0.55508033  0.87872196  0.85996008     0.17960
H1581       H  0.48191717  0.90620837  0.68890007     0.17970
F1582       F  0.53858730  0.91067841  0.65619779    -0.19790
C1583       C  0.27957273  0.88186505  0.85245404    -0.21220
C1584       C  0.29661307  0.88051265  0.79581273    -0.09270
C1585       C  0.28055085  0.87953095  0.73779838     0.29590
C1586       C  0.24827716  0.87995364  0.73692457    -0.21220
C1587       C  0.23126511  0.88104840  0.79360618    -0.09280
C1588       C  0.24731694  0.88195426  0.85159798     0.29600
F1589       F  0.23189788  0.88357034  0.90761690    -0.19800
H1590       H  0.29126224  0.88283188  0.89756590     0.17960
H1591       H  0.23654115  0.87915364  0.69184633     0.17970
F1592       F  0.29596317  0.87869117  0.68170924    -0.19790
C1593       C  0.37579016  0.52859894  0.96106269    -0.21220
C1594       C  0.38616695  0.54861106  0.00879268    -0.09270
C1595       C  0.39490758  0.53614010  0.73436890     0.29590
C1596       C  0.39422328  0.50402656  0.74392990    -0.21220
C1597       C  0.38464986  0.48399212  0.69508965    -0.09280
C1598       C  0.37488334  0.49688382  0.97047332     0.29600
F1599       F  0.36470936  0.47898206  0.92191582    -0.19800
H1600       H  0.36847828  0.53749793  0.91552555     0.17960
H1601       H  0.40167183  0.49484346  0.78909499     0.17970
F1602       F  0.40514756  0.55473839  0.78169127    -0.19790
C1603       C  0.50778311  0.63867808  0.92497686    -0.21220
C1604       C  0.48680588  0.63302816  0.97475176    -0.09270
C1605       C  0.49821687  0.62478574  0.70136370     0.29590
C1606       C  0.52977931  0.62368722  0.71213972    -0.21220
C1607       C  0.55099805  0.63073102  0.66367967    -0.09280
C1608       C  0.53974915  0.63767725  0.93596949     0.29600
F1609       F  0.55943012  0.64451955  0.88769949    -0.19800
H1610       H  0.49945965  0.64487948  0.87832721     0.17960
H1611       H  0.53755246  0.61760141  0.75926844     0.17970
F1612       F  0.47880469  0.61764603  0.74999504    -0.19790
C1613       C  0.28132837  0.64343222  0.01650549    -0.21220
C1614       C  0.29735442  0.64359571  0.95829581    -0.09270
C1615       C  0.28031257  0.64384164  0.90182943     0.29590
C1616       C  0.24806295  0.64382824  0.90387862    -0.21220
C1617       C  0.23202999  0.64326488  0.96206919    -0.09280
C1618       C  0.24907097  0.64312654  0.68521573     0.29600
F1619       F  0.23464050  0.64299028  0.74238380    -0.19800
H1620       H  0.29385150  0.64316923  0.72734204     0.17960
H1621       H  0.23555530  0.64394633  0.85968839     0.17970
F1622       F  0.29473725  0.64441720  0.84466660    -0.19790
C1623       C  0.40114165  0.76924486  0.81700351    -0.21220
C1624       C  0.39629527  0.79343565  0.86021205    -0.09270
C1625       C  0.39243401  0.78627881  0.92512135     0.29590
C1626       C  0.39287095  0.75558787  0.94562155    -0.21220
C1627       C  0.39719103  0.73136198  0.90220621    -0.09280
C1628       C  0.40166808  0.73859774  0.83748078     0.29600
F1629       F  0.40648642  0.71615286  0.79353134    -0.19800
H1630       H  0.40451762  0.77401831  0.76703186     0.17960
H1631       H  0.38928486  0.75077552  0.99551472     0.17970
F1632       F  0.38758395  0.80878410  0.96891347    -0.19790
loop_ 
_geom_bond_atom_site_label_1 
_geom_bond_atom_site_label_2 
_geom_bond_distance 
_geom_bond_site_symmetry_2 
_ccdc_geom_bond_type 
O1           Cu9   1.981       .  S
O1           C11   1.275       .  A
O2           Cu9   1.988       .  S
O2           C12   1.275       .  A
O3        Cu1097   2.031       .  S
O3         C1101   1.280   1_554  A
O4           Cu9   2.032       .  S
O4           C14   1.282       .  A
O5          Cu10   1.983       .  S
O5           C14   1.274       .  A
O6          Cu10   1.982       .  S
O6           C13   1.276       .  A
O7          Cu10   2.028       .  S
O7           C12   1.282       .  A
O8          Cu10   2.032       .  S
O8           C11   1.280       .  A
Cu9         O547   2.031       .  S
Cu9         Cu10   2.369       .  S
C11         C516   1.477       .  S
C12         C526   1.483       .  S
C13         O547   1.280       .  A
C13         C506   1.481       .  S
C14         C539   1.485       .  S
O15         Cu23   1.992       .  S
O15          C25   1.275       .  A
O16         Cu23   1.980       .  S
O16          C26   1.275       .  A
O17         Cu23   2.026       .  S
O17          C27   1.282       .  A
O18         Cu23   2.025       .  S
O18          C28   1.279       .  A
O19         Cu24   1.988       .  S
O19          C28   1.276       .  A
O20         Cu24   1.989       .  S
O20          C27   1.274       .  A
O21         Cu24   2.034       .  S
O21          C26   1.280       .  A
O22         Cu24   2.027       .  S
O22          C25   1.282       .  A
Cu23        Cu24   2.371       .  S
C25         C496   1.484       .  S
C26         C489   1.476       .  S
C27         C536   1.484       .  S
C28         C479   1.473       .  S
O29         Cu37   1.987       .  S
O29          C39   1.275       .  A
O30         Cu37   1.981       .  S
O30          C40   1.275       .  A
O31         Cu37   2.032       .  S
O31         C585   1.282       .  A
O32         Cu37   2.032       .  S
O32          C42   1.280       .  A
O33        Cu582   1.984       .  S
O33          C42   1.275       .  A
O34         Cu38   1.982       .  S
O34          C41   1.274   1_554  A
O35         Cu38   2.033       .  S
O35        C1128   1.280   1_554  A
O36         Cu38   2.029       .  S
O36        C1127   1.282   1_554  A
Cu37       Cu582   2.370       .  S
Cu38       O1121   1.984   1_554  S
Cu38      Cu1125   2.370   1_554  S
C39         O580   1.282       .  A
C39         C529   1.483       .  S
C40         O579   1.280       .  A
C40         C459   1.478       .  S
C41        O1119   1.282       .  A
C41         C466   1.484   1_556  S
C42         C446   1.478       .  S
O43         Cu51   1.988       .  S
O43          C53   1.275       .  A
O44         Cu51   1.980       .  S
O44          C54   1.275       .  A
O45         Cu51   2.027       .  S
O45          C55   1.282       .  A
O46         Cu51   2.030       .  S
O46          C56   1.280       .  A
O47         Cu52   1.984       .  S
O47          C56   1.276       .  A
O48         Cu52   1.988       .  S
O48          C55   1.274       .  A
O49         Cu52   2.038       .  S
O49          C54   1.281       .  A
O50         Cu52   2.031       .  S
O50          C53   1.282       .  A
Cu51        Cu52   2.369       .  S
C53         C499   1.483       .  S
C54         C436   1.483       .  S
C55         C469   1.483       .  S
C56         C426   1.477       .  S
O57         Cu65   2.036       .  S
O57          C67   1.281       .  A
O58         Cu65   2.031       .  S
O58          C68   1.282       .  A
O59         Cu65   1.984       .  S
O59          C69   1.275       .  A
O60         Cu65   1.984       .  S
O60          C70   1.274       .  A
O61         Cu66   2.031   1_554  S
O61          C70   1.282       .  A
O62         Cu66   2.032       .  S
O62          C69   1.280   1_556  A
O63         Cu66   1.984       .  S
O63          C68   1.274   1_556  A
O64         Cu66   1.979       .  S
O64          C67   1.274   1_556  A
Cu65        Cu66   2.368   1_554  S
C67         C509   1.486       .  S
C68         C409   1.477       .  S
C69         C399   1.477   1_554  S
C70         C416   1.485       .  S
O71         Cu79   2.033       .  S
O71          C81   1.280       .  A
O72         Cu79   2.026       .  S
O72          C82   1.281       .  A
O73         Cu79   1.984       .  S
O73          C83   1.276       .  A
O74         Cu79   1.988       .  S
O74          C84   1.274       .  A
O75         Cu80   2.026       .  S
O75          C84   1.282       .  A
O76         Cu80   2.029       .  S
O76          C83   1.280       .  A
O77         Cu80   1.993       .  S
O77          C82   1.276       .  A
O78         Cu80   1.985       .  S
O78          C81   1.276       .  A
Cu79        Cu80   2.369       .  S
C81         C449   1.485       .  S
C82         C389   1.483       .  S
C83         C376   1.475       .  S
C84         C419   1.484       .  S
O85       Cu1181   2.034       .  S
O85          C95   1.281   1_556  A
O86         Cu93   2.026       .  S
O86         C640   1.282       .  A
O87       Cu1181   1.984   1_554  S
O87          C97   1.275       .  A
O88         Cu93   1.990       .  S
O88         C642   1.275       .  A
O89         Cu94   2.027       .  S
O89          C98   1.281       .  A
O90         Cu94   2.033       .  S
O90          C97   1.280       .  A
O91         Cu94   1.990       .  S
O91          C96   1.275       .  A
O92         Cu94   1.980       .  S
O92          C95   1.275       .  A
Cu93        O629   2.034       .  S
Cu93        O631   1.984       .  S
Cu93       Cu638   2.369       .  S
Cu94      Cu1181   2.369   1_554  S
C95         C476   1.481       .  S
C96        O1174   1.282   1_554  A
C96         C406   1.485       .  S
C97         C359   1.477       .  S
C98        O1176   1.275   1_554  A
C98        C1454   1.481   1_554  S
O99        Cu107   2.031       .  S
O99         C109   1.282       .  A
O100       Cu107   2.031       .  S
O100        C110   1.280       .  A
O101       Cu107   1.987       .  S
O101        C111   1.275       .  A
O102       Cu107   1.982       .  S
O102        C112   1.276       .  A
O103       Cu108   2.035       .  S
O103        C112   1.281       .  A
O104       Cu108   2.030       .  S
O104        C111   1.282       .  A
O105       Cu108   1.986       .  S
O105        C110   1.276       .  A
O106       Cu108   1.987       .  S
O106        C109   1.275       .  A
Cu107      Cu108   2.368       .  S
C109        C386   1.485       .  S
C110        C429   1.483       .  S
C111        C369   1.483       .  S
C112        C349   1.486       .  S
O113       Cu121   1.982       .  S
O113        C123   1.276       .  A
O114       Cu121   1.991       .  S
O114        C124   1.275       .  A
O115      Cu1209   2.031       .  S
O115       C1213   1.280   1_554  A
O116       Cu121   2.028       .  S
O116        C126   1.281       .  A
O117       Cu122   1.990       .  S
O117        C126   1.275       .  A
O118       Cu122   1.985       .  S
O118        C125   1.276       .  A
O119       Cu122   2.028       .  S
O119        C124   1.282       .  A
O120       Cu122   2.036       .  S
O120        C123   1.281       .  A
Cu121       O659   2.031       .  S
Cu121      Cu122   2.369       .  S
C123        C396   1.484       .  S
C124        C326   1.484       .  S
C125        O659   1.280       .  A
C125        C316   1.478       .  S
C126        C339   1.481       .  S
O127       Cu135   1.987       .  S
O127        C137   1.276       .  A
O128       Cu135   1.989       .  S
O128        C138   1.275       .  A
O129       Cu135   2.030       .  S
O129        C139   1.280       .  A
O130       Cu135   2.026       .  S
O130        C140   1.281       .  A
O131       Cu136   1.992       .  S
O131        C140   1.275       .  A
O132       Cu136   1.986       .  S
O132        C139   1.276       .  A
O133       Cu136   2.028       .  S
O133        C138   1.282       .  A
O134       Cu136   2.033       .  S
O134        C137   1.280       .  A
Cu135      Cu136   2.369       .  S
C137        C356   1.484       .  S
C138        C306   1.484       .  S
C139        C299   1.478       .  S
C140        C336   1.482       .  S
O141       Cu149   1.983       .  S
O141        C151   1.275       .  A
O142       Cu149   1.987       .  S
O142        C152   1.274       .  A
O143       Cu149   2.035       .  S
O143        C153   1.281       .  A
O144       Cu149   2.031       .  S
O144        C698   1.282       .  A
O145       Cu150   1.984       .  S
O145        C154   1.274       .  A
O146       Cu694   1.979       .  S
O146        C153   1.275       .  A
O147       Cu150   2.031       .  S
O147       C1240   1.282   1_554  A
O148       Cu150   2.033       .  S
O148       C1239   1.280   1_554  A
Cu149      Cu694   2.367       .  S
Cu150      O1234   1.979   1_554  S
Cu150     Cu1237   2.367   1_554  S
C151        O692   1.280       .  A
C151        C379   1.482       .  S
C152        O691   1.282       .  A
C152        C329   1.484       .  S
C153        C276   1.485       .  S
C154       O1232   1.282   1_554  A
C154        C289   1.485       .  S
O155       Cu163   1.978       .  S
O155        C165   1.275       .  A
O156       Cu163   1.985       .  S
O156        C166   1.274       .  A
O157       Cu163   2.030       .  S
O157        C167   1.280       .  A
O158       Cu163   2.027       .  S
O158        C168   1.282       .  A
O159       Cu164   1.988       .  S
O159        C168   1.274       .  A
O160       Cu164   1.985       .  S
O160        C167   1.276       .  A
O161       Cu164   2.032       .  S
O161        C166   1.282       .  A
O162       Cu164   2.039       .  S
O162        C165   1.281       .  A
Cu163      Cu164   2.369       .  S
C165        C346   1.482       .  S
C166        C309   1.483       .  S
C167        C269   1.476       .  S
C168        C286   1.485       .  S
O169       Cu177   2.033       .  S
O169        C179   1.282       .  A
O170       Cu177   2.031       .  S
O170        C180   1.280       .  A
O171       Cu177   1.991       .  S
O171        C181   1.275       .  A
O172       Cu177   1.983       .  S
O172        C182   1.276       .  A
O173       Cu178   2.029       .  S
O173        C182   1.280   1_556  A
O174       Cu178   2.025   1_554  S
O174        C181   1.281       .  A
O175       Cu178   1.986       .  S
O175        C180   1.276   1_556  A
O176       Cu178   1.988       .  S
O176        C179   1.275   1_556  A
Cu177      Cu178   2.368   1_554  S
C179        C249   1.487       .  S
C180        C319   1.484       .  S
C181        C256   1.482       .  S
C182        C519   1.483   1_554  S
O183       Cu191   2.035       .  S
O183        C193   1.280       .  A
O184       Cu191   2.031       .  S
O184        C194   1.282       .  A
O185       Cu191   1.983       .  S
O185        C195   1.275       .  A
O186       Cu191   1.985       .  S
O186        C196   1.275       .  A
O187       Cu192   2.031       .  S
O187        C196   1.282       .  A
O188       Cu192   2.031       .  S
O188        C195   1.280       .  A
O189       Cu192   1.988       .  S
O189        C194   1.275       .  A
O190       Cu192   1.981       .  S
O190        C193   1.276       .  A
Cu191      Cu192   2.369       .  S
C193        C279   1.479       .  S
C194        C239   1.484       .  S
C195        C456   1.484       .  S
C196        C259   1.481       .  S
O197      Cu1293   2.030       .  S
O197        C207   1.280   1_556  A
O198       Cu205   2.028       .  S
O198        C752   1.281       .  A
O199      Cu1293   1.979   1_554  S
O199        C209   1.275       .  A
O200       Cu205   1.984       .  S
O200        C754   1.274       .  A
O201       Cu206   2.033       .  S
O201        C210   1.282       .  A
O202       Cu206   2.034       .  S
O202        C209   1.281       .  A
O203       Cu206   1.993       .  S
O203        C208   1.275       .  A
O204       Cu206   1.987       .  S
O204        C207   1.276       .  A
Cu205       O741   2.030       .  S
Cu205       O743   1.979       .  S
Cu205      Cu750   2.368       .  S
Cu206     Cu1293   2.368   1_554  S
C207        C296   1.483       .  S
C208       O1286   1.281   1_554  A
C208        C246   1.481       .  S
C209        C486   1.483       .  S
C210       O1288   1.274   1_554  A
C210       C1314   1.485   1_554  S
O211       Cu219   2.025       .  S
O211        C221   1.281       .  A
O212       Cu219   2.032       .  S
O212        C222   1.280       .  A
O213       Cu219   1.990       .  S
O213        C223   1.275       .  A
O214       Cu219   1.985       .  S
O214        C224   1.276       .  A
O215       Cu220   2.030       .  S
O215        C224   1.280       .  A
O216       Cu220   2.027       .  S
O216        C223   1.282       .  A
O217       Cu220   1.985       .  S
O217        C222   1.276       .  A
O218       Cu220   1.993       .  S
O218        C221   1.276       .  A
Cu219      Cu220   2.369       .  S
C221        C236   1.483       .  S
C222        C266   1.483       .  S
C223        C229   1.485       .  S
C224        C439   1.475       .  S
C225        C226   1.403       .  A
C225        C230   1.399       .  A
C225        H776   1.082       .  S
C226        C754   1.485       .  S
C226        C227   1.412       .  A
C227        C228   1.397       .  A
C227        F234   1.357       .  S
C228        C229   1.403       .  A
C228        H233   1.082       .  S
C229        C230   1.412       .  A
C230        F231   1.357       .  S
H232       C1313   1.082       .  S
C235        C236   1.406       .  A
C235        C240   1.400       .  A
C235        H242   1.080       .  S
C236        C237   1.404       .  A
C237        C238   1.398       .  A
C237        F244   1.355       .  S
C238        C239   1.406       .  A
C238        H243   1.080       .  S
C239        C240   1.404       .  A
C240        F241   1.354       .  S
C245        C246   1.407       .  A
C245        C250   1.400       .  A
C245        H252   1.083       .  S
C246        C247   1.404   1_554  A
C247        C248   1.398       .  A
C247        F254   1.357       .  S
C248        C249   1.409   1_556  A
C248        H253   1.082       .  S
C249        C250   1.407       .  A
C250        F251   1.357       .  S
C255        C256   1.408       .  A
C255        C260   1.399       .  A
C255        H262   1.083       .  S
C256        C257   1.406       .  A
C257        C258   1.397       .  A
C257        F264   1.357       .  S
C258        C259   1.407       .  A
C258        H263   1.083       .  S
C259        C260   1.405       .  A
C260        F261   1.357       .  S
C265        C266   1.405       .  A
C265        C270   1.390   1_565  A
C265        H272   1.083       .  S
C266        C267   1.411   1_565  A
C267        C268   1.406       .  A
C267        F274   1.357   1_545  S
C268        C269   1.405       .  A
C268        H273   1.083       .  S
C269        C270   1.404       .  A
C270        F271   1.358       .  S
C275        C276   1.409       .  A
C275        C280   1.408       .  A
C275        H282   1.083       .  S
C276        C277   1.409       .  A
C277        C278   1.388       .  A
C277        F284   1.358       .  S
C278        C279   1.402       .  A
C278        H283   1.084       .  S
C279        C280   1.407       .  A
C280        F281   1.356       .  S
C285        C286   1.402       .  A
C285        C290   1.397       .  A
C285        H292   1.081       .  S
C286        C287   1.412       .  A
C287        C288   1.399   1_554  A
C287        F294   1.357   1_554  S
C288        C289   1.403   1_556  A
C288       H1381   1.081       .  S
C289        C290   1.412       .  A
C290        F291   1.357       .  S
H293        C832   1.081       .  S
C295        C296   1.404       .  A
C295        C300   1.390   1_565  A
C295        H302   1.083       .  S
C296        C297   1.411   1_565  A
C297        C298   1.406       .  A
C297       F1392   1.357   1_544  S
C298        C299   1.406       .  A
C298        H303   1.083   1_554  S
C299        C300   1.406       .  A
C300        F301   1.358       .  S
F304        C841   1.357   1_565  S
C305        C306   1.401       .  A
C305        C310   1.397       .  A
C305        H312   1.080       .  S
C306        C307   1.410       .  A
C307        C308   1.399       .  A
C307        F314   1.355       .  S
C308        C309   1.401       .  A
C308        H313   1.080       .  S
C309        C310   1.410       .  A
C310        F311   1.355       .  S
C315        C320   1.406       .  A
C315       C1404   1.406       .  A
C315        H322   1.083       .  S
C316        C317   1.406       .  A
C316        C859   1.406       .  A
C317        C318   1.390       .  A
C317        F324   1.358       .  S
C318        C863   1.405       .  A
C318        H323   1.083       .  S
C319        C320   1.411       .  A
C319       C1406   1.405   1_554  A
C320        F321   1.357       .  S
C325        C326   1.401       .  A
C325        C330   1.398       .  A
C325        H332   1.080       .  S
C326        C327   1.410       .  A
C327        C872   1.399       .  A
C327        F878   1.355       .  S
C328       C1415   1.399       .  A
C328       C1417   1.401   1_554  A
C328        H333   1.080       .  S
C329        C330   1.410       .  A
C329        C872   1.401       .  A
C330        F331   1.355       .  S
F334       C1415   1.355       .  S
C335        C336   1.408       .  A
C335        C340   1.399       .  A
C335        H342   1.083       .  S
C336        C337   1.406       .  A
C337        C338   1.398       .  A
C337        F344   1.357       .  S
C338        C339   1.407       .  A
C338        H343   1.083       .  S
C339        C340   1.405       .  A
C340        F341   1.357       .  S
C345        C346   1.407   1_455  A
C345        C350   1.408       .  A
C345        H352   1.083   1_455  S
C346        C347   1.407       .  A
C347        C348   1.388   1_655  A
C347        F354   1.358       .  S
C348        C349   1.405       .  A
C348        H353   1.083       .  S
C349        C350   1.411       .  A
C350        F351   1.357       .  S
C355        C356   1.404       .  A
C355        C360   1.390       .  A
C355        H362   1.083       .  S
C356        C357   1.411       .  A
C357        C358   1.407       .  A
C357        F364   1.357       .  S
C358        C359   1.406       .  A
C358        H363   1.083       .  S
C359        C360   1.405       .  A
C360        F361   1.358       .  S
C365        C366   1.408       .  A
C365        C370   1.399       .  A
C365        H372   1.083       .  S
C366        C642   1.481       .  S
C366        C911   1.405       .  A
C367       C1454   1.405   1_554  A
C367       C1456   1.398       .  A
C367        F374   1.357       .  S
C368        C369   1.408       .  A
C368        C911   1.398       .  A
C368        H917   1.083       .  S
C369        C370   1.406       .  A
C370        F371   1.357       .  S
H373       C1456   1.083       .  S
C375        C376   1.401       .  A
C375        C380   1.389       .  A
C375        H382   1.084       .  S
C376        C377   1.406       .  A
C377        C378   1.407       .  A
C377        F384   1.357       .  S
C378        C379   1.409   1_455  A
C378        H383   1.083   1_455  S
C379        C380   1.409   1_655  A
C380        F381   1.358   1_455  S
C385        C386   1.407       .  A
C385        C390   1.398       .  A
C385        H392   1.080       .  S
C386        C387   1.405       .  A
C387        C388   1.399       .  A
C387        F394   1.355       .  S
C388        C389   1.406       .  A
C388        H393   1.080       .  S
C389        C390   1.404       .  A
C390        F391   1.355       .  S
C395        C400   1.389       .  A
C395       C1484   1.405   1_554  A
C395        H402   1.083       .  S
C396        C397   1.411       .  A
C396        C939   1.405       .  A
C397        C398   1.407       .  A
C397        F404   1.357       .  S
C398        C943   1.406       .  A
C398        H403   1.083       .  S
C399        C400   1.405   1_556  A
C399       C1486   1.406       .  A
C400        F401   1.358       .  S
C405        C406   1.404   1_556  A
C405        C410   1.397       .  A
C405        H412   1.083       .  S
C406        C407   1.414       .  A
C407        C408   1.399       .  A
C407        F414   1.357       .  S
C408        C409   1.401       .  A
C408        H413   1.083       .  S
C409        C410   1.409   1_554  A
C410        F411   1.358       .  S
C415        C416   1.403       .  A
C415        C420   1.398       .  A
C415        H422   1.081       .  S
C416        C417   1.412       .  A
C417        C418   1.397       .  A
C417        F424   1.357       .  S
C418        C419   1.402       .  A
C418        H423   1.081       .  S
C419        C420   1.412       .  A
C420        F421   1.357       .  S
C425        C426   1.406       .  A
C425        C430   1.406   1_565  A
C425        H432   1.083       .  S
C426        C427   1.405       .  A
C427        C428   1.390   1_565  A
C427        F434   1.358       .  S
C428        C429   1.404       .  A
C428        H433   1.083       .  S
C429        C430   1.411       .  A
C430        F431   1.357       .  S
C435        C436   1.409       .  A
C435        C440   1.407   1_455  A
C435        H442   1.083       .  S
C436        C437   1.409       .  A
C437        C438   1.389   1_455  A
C437        F444   1.358       .  S
C438        C439   1.400       .  A
C438        H443   1.084       .  S
C439        C440   1.407       .  A
C440        F441   1.357       .  S
C445        C446   1.406       .  A
C445        C450   1.406       .  A
C445        H452   1.083       .  S
C446        C447   1.405       .  A
C447        C448   1.390       .  A
C447        F454   1.358       .  S
C448        C449   1.405       .  A
C448        H453   1.083       .  S
C449        C450   1.411       .  A
C450        F451   1.357       .  S
C455        C456   1.409       .  A
C455        C460   1.406   1_655  A
C455        H462   1.083       .  S
C456        C457   1.409       .  A
C457        C458   1.389   1_655  A
C457        F464   1.357       .  S
C458        C459   1.401       .  A
C458        H463   1.084       .  S
C459        C460   1.407       .  A
C460       F1005   1.356       .  S
F461       C1548   1.356   1_554  S
C465        C466   1.403   1_556  A
C465        C470   1.399       .  A
C465        H472   1.082       .  S
C466        C467   1.412       .  A
C467        C468   1.397       .  A
C467        F474   1.358       .  S
C468        C469   1.402       .  A
C468        H473   1.083       .  S
C469        C470   1.412   1_554  A
C470        F471   1.357       .  S
C475        C476   1.408       .  A
C475        C480   1.406   1_545  A
C475        H482   1.083   1_554  S
C476        C477   1.409       .  A
C477        C478   1.390   1_545  A
C477        F484   1.358       .  S
C478        C479   1.400       .  A
C478        H483   1.084       .  S
C479        C480   1.407       .  A
C480        F481   1.357   1_554  S
C485        C486   1.409       .  A
C485        C490   1.407       .  A
C485        H492   1.083       .  S
C486        C487   1.409       .  A
C487        C488   1.388       .  A
C487        F494   1.358   1_554  S
C488        C489   1.401       .  A
C488        H493   1.084       .  S
C489        C490   1.407       .  A
C490        F491   1.357       .  S
C495        C496   1.402       .  A
C495        C500   1.398       .  A
C495        H502   1.080       .  S
C496        C497   1.410       .  A
C497        C498   1.399       .  A
C497        F504   1.355       .  S
C498        C499   1.401       .  A
C498        H503   1.080       .  S
C499        C500   1.410       .  A
C500        F501   1.355       .  S
C505        C506   1.402       .  A
C505        C510   1.389       .  A
C505        H512   1.084       .  S
C506       C1051   1.408       .  A
C507        C508   1.406       .  A
C507       C1594   1.408       .  A
C507        F514   1.357       .  S
C508        C509   1.409       .  A
C508        H513   1.083       .  S
C509       C1598   1.411   1_554  A
C510       C1053   1.411       .  A
C510        F511   1.358       .  S
C515        C516   1.406       .  A
C515        C520   1.406       .  A
C515        H522   1.083       .  S
C516       C1061   1.406       .  A
C517        C518   1.389       .  A
C517       C1604   1.406   1_554  A
C517        F524   1.358       .  S
C518        C519   1.404   1_554  A
C518        H523   1.083       .  S
C519       C1608   1.411       .  A
C520       C1063   1.411       .  A
C520        F521   1.357       .  S
C525        C526   1.407       .  A
C525       C1074   1.398       .  A
C525       H1076   1.080       .  S
C526        C527   1.404       .  A
C527        C528   1.398       .  A
C527        F534   1.355       .  S
C528        C529   1.407       .  A
C528        H533   1.080       .  S
C529       C1074   1.404       .  A
C530       C1613   1.398       .  A
C530       C1617   1.404   1_554  A
C530        F531   1.355       .  S
H532       C1613   1.080       .  S
C535        C536   1.403       .  A
C535        C540   1.397       .  A
C535        H542   1.083       .  S
C536        C537   1.412       .  A
C537        C538   1.399       .  A
C537        F544   1.357       .  S
C538        C539   1.403       .  A
C538        H543   1.083       .  S
C539        C540   1.412       .  A
C540        F541   1.358       .  S
O545       Cu553   1.981       .  S
O545        C555   1.275       .  A
O546       Cu553   1.988       .  S
O546        C556   1.275       .  A
O548       Cu553   2.032       .  S
O548        C558   1.282       .  A
O549       Cu554   1.983       .  S
O549        C558   1.274       .  A
O550       Cu554   1.982       .  S
O550        C557   1.276       .  A
O551       Cu554   2.028       .  S
O551        C556   1.282       .  A
O552       Cu554   2.032       .  S
O552        C555   1.280       .  A
Cu553      O1091   2.031       .  S
Cu553      Cu554   2.369       .  S
C555       C1060   1.477       .  S
C556       C1070   1.483       .  S
C557       O1091   1.280       .  A
C557       C1050   1.481       .  S
C558       C1083   1.485       .  S
O559       Cu567   1.992       .  S
O559        C569   1.275       .  A
O560       Cu567   1.980       .  S
O560        C570   1.275       .  A
O561       Cu567   2.026       .  S
O561        C571   1.282       .  A
O562       Cu567   2.025       .  S
O562        C572   1.279       .  A
O563       Cu568   1.988       .  S
O563        C572   1.276       .  A
O564       Cu568   1.989       .  S
O564        C571   1.274       .  A
O565       Cu568   2.034       .  S
O565        C570   1.280       .  A
O566       Cu568   2.027       .  S
O566        C569   1.282       .  A
Cu567      Cu568   2.371       .  S
C569       C1040   1.484       .  S
C570       C1033   1.476       .  S
C571       C1080   1.484       .  S
C572       C1023   1.473       .  S
O573       Cu581   1.987       .  S
O573        C583   1.275       .  A
O574       Cu581   1.981       .  S
O574        C584   1.275       .  A
O575       Cu581   2.032       .  S
O575       C1129   1.282       .  A
O576       Cu581   2.032       .  S
O576        C586   1.280       .  A
O577      Cu1126   1.984       .  S
O577        C586   1.275       .  A
O578       Cu582   1.982       .  S
O578        C585   1.274       .  A
O579       Cu582   2.033       .  S
O580       Cu582   2.029       .  S
Cu581     Cu1126   2.370       .  S
C583       O1124   1.282       .  A
C583       C1073   1.483       .  S
C584       O1123   1.280       .  A
C584       C1003   1.478       .  S
C585       C1010   1.484       .  S
C586        C990   1.478       .  S
O587       Cu595   1.988       .  S
O587        C597   1.275       .  A
O588       Cu595   1.980       .  S
O588        C598   1.275       .  A
O589       Cu595   2.027       .  S
O589        C599   1.282       .  A
O590       Cu595   2.030       .  S
O590        C600   1.280       .  A
O591       Cu596   1.984       .  S
O591        C600   1.276       .  A
O592       Cu596   1.988       .  S
O592        C599   1.274       .  A
O593       Cu596   2.038       .  S
O593        C598   1.281       .  A
O594       Cu596   2.031       .  S
O594        C597   1.282       .  A
Cu595      Cu596   2.369       .  S
C597       C1043   1.483       .  S
C598        C980   1.483       .  S
C599       C1013   1.483       .  S
C600        C970   1.477       .  S
O601       Cu609   2.036       .  S
O601        C611   1.281       .  A
O602       Cu609   2.031       .  S
O602        C612   1.282       .  A
O603       Cu609   1.984       .  S
O603        C613   1.275       .  A
O604       Cu609   1.984       .  S
O604        C614   1.274       .  A
O605       Cu610   2.031       .  S
O605        C614   1.282       .  A
O606       Cu610   2.032       .  S
O606        C613   1.280       .  A
O607       Cu610   1.984       .  S
O607        C612   1.274       .  A
O608       Cu610   1.979       .  S
O608        C611   1.274       .  A
Cu609      Cu610   2.368       .  S
C611       C1053   1.486       .  S
C612        C953   1.477       .  S
C613        C943   1.477       .  S
C614        C960   1.485       .  S
O615       Cu623   2.033       .  S
O615        C625   1.280       .  A
O616       Cu623   2.026       .  S
O616        C626   1.281       .  A
O617       Cu623   1.984       .  S
O617        C627   1.276       .  A
O618       Cu623   1.988       .  S
O618        C628   1.274       .  A
O619       Cu624   2.026       .  S
O619        C628   1.282       .  A
O620       Cu624   2.029       .  S
O620        C627   1.280       .  A
O621       Cu624   1.993       .  S
O621        C626   1.276       .  A
O622       Cu624   1.985       .  S
O622        C625   1.276       .  A
Cu623      Cu624   2.369       .  S
C625        C993   1.485       .  S
C626        C933   1.483       .  S
C627        C920   1.475       .  S
C628        C963   1.484       .  S
O629        C639   1.281       .  A
O630       Cu637   2.026       .  S
O630       C1184   1.282       .  A
O631        C641   1.275       .  A
O632       Cu637   1.990       .  S
O632       C1186   1.275       .  A
O633       Cu638   2.027       .  S
O633        C642   1.281       .  A
O634       Cu638   2.033       .  S
O634        C641   1.280       .  A
O635       Cu638   1.990       .  S
O635        C640   1.275       .  A
O636       Cu638   1.980       .  S
O636        C639   1.275       .  A
Cu637      O1173   2.034       .  S
Cu637      O1175   1.984       .  S
Cu637     Cu1182   2.369       .  S
C639       C1020   1.481       .  S
C640        C950   1.485       .  S
C641        C903   1.477       .  S
O643       Cu651   2.031       .  S
O643        C653   1.282       .  A
O644       Cu651   2.031       .  S
O644        C654   1.280       .  A
O645       Cu651   1.987       .  S
O645        C655   1.275       .  A
O646       Cu651   1.982       .  S
O646        C656   1.276       .  A
O647       Cu652   2.035       .  S
O647        C656   1.281       .  A
O648       Cu652   2.030       .  S
O648        C655   1.282       .  A
O649       Cu652   1.986       .  S
O649        C654   1.276       .  A
O650       Cu652   1.987       .  S
O650        C653   1.275       .  A
Cu651      Cu652   2.368       .  S
C653        C930   1.485       .  S
C654        C973   1.483       .  S
C655        C913   1.483       .  S
C656        C893   1.486       .  S
O657       Cu665   1.982       .  S
O657        C667   1.276       .  A
O658       Cu665   1.991       .  S
O658        C668   1.275       .  A
O660       Cu665   2.028       .  S
O660        C670   1.281       .  A
O661       Cu666   1.990       .  S
O661        C670   1.275       .  A
O662       Cu666   1.985       .  S
O662        C669   1.276       .  A
O663       Cu666   2.028       .  S
O663        C668   1.282       .  A
O664       Cu666   2.036       .  S
O664        C667   1.281       .  A
Cu665      O1203   2.031       .  S
Cu665      Cu666   2.369       .  S
C667        C940   1.484       .  S
C668        C870   1.484       .  S
C669       O1203   1.280       .  A
C669        C860   1.478       .  S
C670        C883   1.481       .  S
O671       Cu679   1.987       .  S
O671        C681   1.276       .  A
O672       Cu679   1.989       .  S
O672        C682   1.275       .  A
O673       Cu679   2.030       .  S
O673        C683   1.280       .  A
O674       Cu679   2.026       .  S
O674        C684   1.281       .  A
O675       Cu680   1.992       .  S
O675        C684   1.275       .  A
O676       Cu680   1.986       .  S
O676        C683   1.276       .  A
O677       Cu680   2.028       .  S
O677        C682   1.282       .  A
O678       Cu680   2.033       .  S
O678        C681   1.280       .  A
Cu679      Cu680   2.369       .  S
C681        C900   1.484       .  S
C682        C850   1.484       .  S
C683        C843   1.478       .  S
C684        C880   1.482       .  S
O685       Cu693   1.983       .  S
O685        C695   1.275       .  A
O686       Cu693   1.987       .  S
O686        C696   1.274       .  A
O687       Cu693   2.035       .  S
O687        C697   1.281       .  A
O688       Cu693   2.031       .  S
O688       C1242   1.282       .  A
O689       Cu694   1.984       .  S
O689        C698   1.274       .  A
O690      Cu1238   1.979       .  S
O690        C697   1.275       .  A
O691       Cu694   2.031       .  S
O692       Cu694   2.033       .  S
Cu693     Cu1238   2.367       .  S
C695       O1236   1.280       .  A
C695        C923   1.482       .  S
C696       O1235   1.282       .  A
C696        C873   1.484       .  S
C697        C820   1.485       .  S
C698        C833   1.485       .  S
O699       Cu707   1.978       .  S
O699        C709   1.275       .  A
O700       Cu707   1.985       .  S
O700        C710   1.274       .  A
O701       Cu707   2.030       .  S
O701        C711   1.280       .  A
O702       Cu707   2.027       .  S
O702        C712   1.282       .  A
O703       Cu708   1.988       .  S
O703        C712   1.274       .  A
O704       Cu708   1.985       .  S
O704        C711   1.276       .  A
O705       Cu708   2.032       .  S
O705        C710   1.282       .  A
O706       Cu708   2.039       .  S
O706        C709   1.281       .  A
Cu707      Cu708   2.369       .  S
C709        C890   1.482       .  S
C710        C853   1.483       .  S
C711        C813   1.476       .  S
C712        C830   1.485       .  S
O713       Cu721   2.033       .  S
O713        C723   1.282       .  A
O714       Cu721   2.031       .  S
O714        C724   1.280       .  A
O715       Cu721   1.991       .  S
O715        C725   1.275       .  A
O716       Cu721   1.983       .  S
O716        C726   1.276       .  A
O717       Cu722   2.029       .  S
O717        C726   1.280       .  A
O718       Cu722   2.025       .  S
O718        C725   1.281       .  A
O719       Cu722   1.986       .  S
O719        C724   1.276       .  A
O720       Cu722   1.988       .  S
O720        C723   1.275       .  A
Cu721      Cu722   2.368       .  S
C723        C793   1.487       .  S
C724        C863   1.484       .  S
C725        C800   1.482       .  S
C726       C1063   1.483       .  S
O727       Cu735   2.035       .  S
O727        C737   1.280       .  A
O728       Cu735   2.031       .  S
O728        C738   1.282       .  A
O729       Cu735   1.983       .  S
O729        C739   1.275       .  A
O730       Cu735   1.985       .  S
O730        C740   1.275       .  A
O731       Cu736   2.031       .  S
O731        C740   1.282       .  A
O732       Cu736   2.031       .  S
O732        C739   1.280       .  A
O733       Cu736   1.988       .  S
O733        C738   1.275       .  A
O734       Cu736   1.981       .  S
O734        C737   1.276       .  A
Cu735      Cu736   2.369       .  S
C737        C823   1.479       .  S
C738        C783   1.484       .  S
C739       C1000   1.484       .  S
C740        C803   1.481       .  S
O741        C751   1.280       .  A
O742       Cu749   2.028       .  S
O742       C1296   1.281       .  A
O743        C753   1.275       .  A
O744       Cu749   1.984       .  S
O744       C1298   1.274       .  A
O745       Cu750   2.033       .  S
O745        C754   1.282       .  A
O746       Cu750   2.034       .  S
O746        C753   1.281       .  A
O747       Cu750   1.993       .  S
O747        C752   1.275       .  A
O748       Cu750   1.987       .  S
O748        C751   1.276       .  A
Cu749      O1285   2.030       .  S
Cu749      O1287   1.979       .  S
Cu749     Cu1294   2.368       .  S
C751        C840   1.483       .  S
C752        C790   1.481       .  S
C753       C1030   1.483       .  S
O755       Cu763   2.025       .  S
O755        C765   1.281       .  A
O756       Cu763   2.032       .  S
O756        C766   1.280       .  A
O757       Cu763   1.990       .  S
O757        C767   1.275       .  A
O758       Cu763   1.985       .  S
O758        C768   1.276       .  A
O759       Cu764   2.030       .  S
O759        C768   1.280       .  A
O760       Cu764   2.027       .  S
O760        C767   1.282       .  A
O761       Cu764   1.985       .  S
O761        C766   1.276       .  A
O762       Cu764   1.993       .  S
O762        C765   1.276       .  A
Cu763      Cu764   2.369       .  S
C765        C780   1.483       .  S
C766        C810   1.483       .  S
C767        C773   1.485       .  S
C768        C983   1.475       .  S
C769        C770   1.403       .  A
C769        C774   1.399       .  A
C769       H1320   1.082       .  S
C770       C1298   1.485       .  S
C770        C771   1.412       .  A
C771        C772   1.397       .  A
C771        F778   1.357       .  S
C772        C773   1.403       .  A
C772        H777   1.082       .  S
C773        C774   1.412       .  A
C774        F775   1.357       .  S
C779        C780   1.406       .  A
C779        C784   1.400       .  A
C779        H786   1.080       .  S
C780        C781   1.404       .  A
C781        C782   1.398       .  A
C781        F788   1.355       .  S
C782        C783   1.406       .  A
C782        H787   1.080       .  S
C783        C784   1.404       .  A
C784        F785   1.354       .  S
C789        C790   1.407       .  A
C789        C794   1.400       .  A
C789        H796   1.083       .  S
C790        C791   1.404       .  A
C791        C792   1.398       .  A
C791        F798   1.357       .  S
C792        C793   1.409       .  A
C792        H797   1.082       .  S
C793        C794   1.407       .  A
C794        F795   1.357       .  S
C799        C800   1.408       .  A
C799        C804   1.399       .  A
C799        H806   1.083       .  S
C800        C801   1.406       .  A
C801        C802   1.397       .  A
C801        F808   1.357       .  S
C802        C803   1.407       .  A
C802        H807   1.083       .  S
C803        C804   1.405       .  A
C804        F805   1.357       .  S
C809        C810   1.405       .  A
C809        C814   1.390   1_565  A
C809        H816   1.083       .  S
C810        C811   1.411   1_565  A
C811        C812   1.406       .  A
C811        F818   1.357   1_545  S
C812        C813   1.405       .  A
C812        H817   1.083       .  S
C813        C814   1.404       .  A
C814        F815   1.358       .  S
C819        C820   1.409       .  A
C819        C824   1.408       .  A
C819        H826   1.083       .  S
C820        C821   1.409       .  A
C821        C822   1.388       .  A
C821        F828   1.358       .  S
C822        C823   1.402       .  A
C822        H827   1.084       .  S
C823        C824   1.407       .  A
C824        F825   1.356       .  S
C829        C830   1.402       .  A
C829        C834   1.397       .  A
C829        H836   1.081       .  S
C830        C831   1.412       .  A
C831        C832   1.399       .  A
C831        F838   1.357       .  S
C832        C833   1.403       .  A
C833        C834   1.412       .  A
C834        F835   1.357       .  S
H837       C1376   1.081       .  S
C839        C840   1.404       .  A
C839        C844   1.390   1_565  A
C839        H846   1.083       .  S
C840        C841   1.411   1_565  A
C841        C842   1.406       .  A
C842        C843   1.406       .  A
C842        H847   1.083       .  S
C843        C844   1.406       .  A
C844        F845   1.358       .  S
F848       C1385   1.357   1_565  S
C849        C850   1.401       .  A
C849        C854   1.397       .  A
C849        H856   1.080       .  S
C850        C851   1.410       .  A
C851        C852   1.399       .  A
C851        F858   1.355       .  S
C852        C853   1.401       .  A
C852        H857   1.080       .  S
C853        C854   1.410       .  A
C854        F855   1.355       .  S
C859        C864   1.406       .  A
C859        H866   1.083       .  S
C860       C1403   1.406       .  A
C860        C861   1.406       .  A
C861        C862   1.390       .  A
C861        F868   1.358       .  S
C862       C1407   1.405       .  A
C862        H867   1.083       .  S
C863        C864   1.411       .  A
C864        F865   1.357       .  S
C869        C870   1.401       .  A
C869        C874   1.398       .  A
C869        H876   1.080       .  S
C870        C871   1.410       .  A
C871       C1416   1.399       .  A
C871       F1422   1.355       .  S
C872        H877   1.080       .  S
C873       C1416   1.401       .  A
C873        C874   1.410       .  A
C874        F875   1.355       .  S
C879        C880   1.408       .  A
C879        C884   1.399       .  A
C879        H886   1.083       .  S
C880        C881   1.406       .  A
C881        C882   1.398       .  A
C881        F888   1.357       .  S
C882        C883   1.407       .  A
C882        H887   1.083       .  S
C883        C884   1.405       .  A
C884        F885   1.357       .  S
C889        C890   1.407   1_455  A
C889        C894   1.408       .  A
C889        H896   1.083   1_455  S
C890        C891   1.407       .  A
C891        C892   1.388   1_655  A
C891        F898   1.358       .  S
C892        C893   1.405       .  A
C892        H897   1.083       .  S
C893        C894   1.411       .  A
C894        F895   1.357       .  S
C899        C900   1.404       .  A
C899        C904   1.390       .  A
C899        H906   1.083       .  S
C900        C901   1.411       .  A
C901        C902   1.407       .  A
C901        F908   1.357       .  S
C902        C903   1.406       .  A
C902        H907   1.083       .  S
C903        C904   1.405       .  A
C904        F905   1.358       .  S
C909        C910   1.408       .  A
C909        C914   1.399       .  A
C909        H916   1.083       .  S
C910       C1186   1.481       .  S
C910       C1455   1.405       .  A
C911        F918   1.357       .  S
C912       C1455   1.398       .  A
C912        C913   1.408       .  A
C912       H1461   1.083       .  S
C913        C914   1.406       .  A
C914        F915   1.357       .  S
C919        C920   1.401       .  A
C919        C924   1.389       .  A
C919        H926   1.084       .  S
C920        C921   1.406       .  A
C921        C922   1.407       .  A
C921        F928   1.357       .  S
C922        C923   1.409   1_455  A
C922        H927   1.083   1_455  S
C923        C924   1.409   1_655  A
C924        F925   1.358   1_455  S
C929        C930   1.407       .  A
C929        C934   1.398       .  A
C929        H936   1.080       .  S
C930        C931   1.405       .  A
C931        C932   1.399       .  A
C931        F938   1.355       .  S
C932        C933   1.406       .  A
C932        H937   1.080       .  S
C933        C934   1.404       .  A
C934        F935   1.355       .  S
C939        C944   1.389       .  A
C939        H946   1.083       .  S
C940       C1483   1.405       .  A
C940        C941   1.411       .  A
C941        C942   1.407       .  A
C941        F948   1.357       .  S
C942       C1487   1.406       .  A
C942        H947   1.083       .  S
C943        C944   1.405       .  A
C944        F945   1.358       .  S
C949        C950   1.404       .  A
C949        C954   1.397       .  A
C949        H956   1.083       .  S
C950        C951   1.414       .  A
C951        C952   1.399       .  A
C951        F958   1.357       .  S
C952        C953   1.401       .  A
C952        H957   1.083       .  S
C953        C954   1.409       .  A
C954        F955   1.358       .  S
C959        C960   1.403       .  A
C959        C964   1.398       .  A
C959        H966   1.081       .  S
C960        C961   1.412       .  A
C961        C962   1.397       .  A
C961        F968   1.357       .  S
C962        C963   1.402       .  A
C962        H967   1.081       .  S
C963        C964   1.412       .  A
C964        F965   1.357       .  S
C969        C970   1.406       .  A
C969        C974   1.406   1_565  A
C969        H976   1.083       .  S
C970        C971   1.405       .  A
C971        C972   1.390   1_565  A
C971        F978   1.358       .  S
C972        C973   1.404       .  A
C972        H977   1.083       .  S
C973        C974   1.411       .  A
C974        F975   1.357       .  S
C979        C980   1.409       .  A
C979        C984   1.407   1_455  A
C979        H986   1.083       .  S
C980        C981   1.409       .  A
C981        C982   1.389   1_455  A
C981        F988   1.358       .  S
C982        C983   1.400       .  A
C982        H987   1.084       .  S
C983        C984   1.407       .  A
C984        F985   1.357       .  S
C989        C990   1.406       .  A
C989        C994   1.406       .  A
C989        H996   1.083       .  S
C990        C991   1.405       .  A
C991        C992   1.390       .  A
C991        F998   1.358       .  S
C992        C993   1.405       .  A
C992        H997   1.083       .  S
C993        C994   1.411       .  A
C994        F995   1.357       .  S
C999       C1000   1.409       .  A
C999       C1004   1.406   1_655  A
C999       H1006   1.083       .  S
C1000      C1001   1.409       .  A
C1001      C1002   1.389   1_655  A
C1001      F1008   1.357       .  S
C1002      C1003   1.401       .  A
C1002      H1007   1.084       .  S
C1003      C1004   1.407       .  A
C1004      F1549   1.356       .  S
C1009      C1010   1.403       .  A
C1009      C1014   1.399       .  A
C1009      H1016   1.082       .  S
C1010      C1011   1.412       .  A
C1011      C1012   1.397       .  A
C1011      F1018   1.358       .  S
C1012      C1013   1.402       .  A
C1012      H1017   1.083       .  S
C1013      C1014   1.412       .  A
C1014      F1015   1.357       .  S
C1019      C1020   1.408       .  A
C1019      C1024   1.406   1_545  A
C1019      H1026   1.083       .  S
C1020      C1021   1.409       .  A
C1021      C1022   1.390   1_545  A
C1021      F1028   1.358       .  S
C1022      C1023   1.400       .  A
C1022      H1027   1.084       .  S
C1023      C1024   1.407       .  A
C1024      F1025   1.357       .  S
C1029      C1030   1.409       .  A
C1029      C1034   1.407       .  A
C1029      H1036   1.083       .  S
C1030      C1031   1.409       .  A
C1031      C1032   1.388       .  A
C1031      F1038   1.358       .  S
C1032      C1033   1.401       .  A
C1032      H1037   1.084       .  S
C1033      C1034   1.407       .  A
C1034      F1035   1.357       .  S
C1039      C1040   1.402       .  A
C1039      C1044   1.398       .  A
C1039      H1046   1.080       .  S
C1040      C1041   1.410       .  A
C1041      C1042   1.399       .  A
C1041      F1048   1.355       .  S
C1042      C1043   1.401       .  A
C1042      H1047   1.080       .  S
C1043      C1044   1.410       .  A
C1044      F1045   1.355       .  S
C1049      C1050   1.402       .  A
C1049      C1054   1.389       .  A
C1049      H1056   1.084       .  S
C1050      C1595   1.408       .  A
C1051      C1052   1.406       .  A
C1051      F1058   1.357       .  S
C1052      C1053   1.409       .  A
C1052      H1057   1.083       .  S
C1054      C1597   1.411       .  A
C1054      F1055   1.358       .  S
C1059      C1060   1.406       .  A
C1059      C1064   1.406       .  A
C1059      H1066   1.083       .  S
C1060      C1605   1.406       .  A
C1061      C1062   1.389       .  A
C1061      F1068   1.358       .  S
C1062      C1063   1.404       .  A
C1062      H1067   1.083       .  S
C1064      C1607   1.411       .  A
C1064      F1065   1.357       .  S
C1069      C1070   1.407       .  A
C1069      C1618   1.398       .  A
C1069      H1620   1.080       .  S
C1070      C1071   1.404       .  A
C1071      C1072   1.398       .  A
C1071      F1078   1.355       .  S
C1072      C1073   1.407       .  A
C1072      H1077   1.080       .  S
C1073      C1618   1.404       .  A
C1074      F1075   1.355       .  S
C1079      C1080   1.403       .  A
C1079      C1084   1.397       .  A
C1079      H1086   1.083       .  S
C1080      C1081   1.412       .  A
C1081      C1082   1.399       .  A
C1081      F1088   1.357       .  S
C1082      C1083   1.403       .  A
C1082      H1087   1.083       .  S
C1083      C1084   1.412       .  A
C1084      F1085   1.358       .  S
O1089     Cu1097   1.981       .  S
O1089      C1099   1.275   1_554  A
O1090     Cu1097   1.988       .  S
O1090      C1100   1.275   1_554  A
O1092     Cu1097   2.032   1_556  S
O1092      C1102   1.282       .  A
O1093     Cu1098   1.983       .  S
O1093      C1102   1.274       .  A
O1094     Cu1098   1.982       .  S
O1094      C1101   1.276       .  A
O1095     Cu1098   2.028       .  S
O1095      C1100   1.282       .  A
O1096     Cu1098   2.032       .  S
O1096      C1099   1.280       .  A
Cu1097    Cu1098   2.369   1_554  S
C1099      C1604   1.477       .  S
C1100      C1614   1.483       .  S
C1101      C1594   1.481   1_556  S
C1102      C1627   1.485       .  S
O1103     Cu1111   1.992       .  S
O1103      C1113   1.275       .  A
O1104     Cu1111   1.980       .  S
O1104      C1114   1.275       .  A
O1105     Cu1111   2.026       .  S
O1105      C1115   1.282       .  A
O1106     Cu1111   2.025       .  S
O1106      C1116   1.279       .  A
O1107     Cu1112   1.988       .  S
O1107      C1116   1.276       .  A
O1108     Cu1112   1.989       .  S
O1108      C1115   1.274       .  A
O1109     Cu1112   2.034       .  S
O1109      C1114   1.280       .  A
O1110     Cu1112   2.027       .  S
O1110      C1113   1.282       .  A
Cu1111    Cu1112   2.371       .  S
C1113      C1584   1.484       .  S
C1114      C1577   1.476       .  S
C1115      C1624   1.484       .  S
C1116      C1567   1.473       .  S
O1117     Cu1125   1.987       .  S
O1117      C1127   1.275       .  A
O1118     Cu1125   1.981       .  S
O1118      C1128   1.275       .  A
O1119     Cu1125   2.032       .  S
O1120     Cu1125   2.032       .  S
O1120      C1130   1.280       .  A
O1121      C1130   1.275       .  A
O1122     Cu1126   1.982       .  S
O1122      C1129   1.274       .  A
O1123     Cu1126   2.033       .  S
O1124     Cu1126   2.029       .  S
C1127      C1617   1.483       .  S
C1128      C1547   1.478       .  S
C1129      C1554   1.484       .  S
C1130      C1534   1.478       .  S
O1131     Cu1139   1.988       .  S
O1131      C1141   1.275       .  A
O1132     Cu1139   1.980       .  S
O1132      C1142   1.275       .  A
O1133     Cu1139   2.027       .  S
O1133      C1143   1.282       .  A
O1134     Cu1139   2.030       .  S
O1134      C1144   1.280       .  A
O1135     Cu1140   1.984       .  S
O1135      C1144   1.276       .  A
O1136     Cu1140   1.988       .  S
O1136      C1143   1.274       .  A
O1137     Cu1140   2.038       .  S
O1137      C1142   1.281       .  A
O1138     Cu1140   2.031       .  S
O1138      C1141   1.282       .  A
Cu1139    Cu1140   2.369       .  S
C1141      C1587   1.483       .  S
C1142      C1524   1.483       .  S
C1143      C1557   1.483       .  S
C1144      C1514   1.477       .  S
O1145     Cu1153   2.036       .  S
O1145      C1155   1.281       .  A
O1146     Cu1153   2.031       .  S
O1146      C1156   1.282       .  A
O1147     Cu1153   1.984       .  S
O1147      C1157   1.275       .  A
O1148     Cu1153   1.984       .  S
O1148      C1158   1.274       .  A
O1149     Cu1154   2.031       .  S
O1149      C1158   1.282       .  A
O1150     Cu1154   2.032       .  S
O1150      C1157   1.280       .  A
O1151     Cu1154   1.984       .  S
O1151      C1156   1.274       .  A
O1152     Cu1154   1.979       .  S
O1152      C1155   1.274       .  A
Cu1153    Cu1154   2.368       .  S
C1155      C1597   1.486       .  S
C1156      C1497   1.477       .  S
C1157      C1487   1.477       .  S
C1158      C1504   1.485       .  S
O1159     Cu1167   2.033       .  S
O1159      C1169   1.280       .  A
O1160     Cu1167   2.026       .  S
O1160      C1170   1.281       .  A
O1161     Cu1167   1.984       .  S
O1161      C1171   1.276       .  A
O1162     Cu1167   1.988       .  S
O1162      C1172   1.274       .  A
O1163     Cu1168   2.026       .  S
O1163      C1172   1.282       .  A
O1164     Cu1168   2.029       .  S
O1164      C1171   1.280       .  A
O1165     Cu1168   1.993       .  S
O1165      C1170   1.276       .  A
O1166     Cu1168   1.985       .  S
O1166      C1169   1.276       .  A
Cu1167    Cu1168   2.369       .  S
C1169      C1537   1.485       .  S
C1170      C1477   1.483       .  S
C1171      C1464   1.475       .  S
C1172      C1507   1.484       .  S
O1173      C1183   1.281       .  A
O1174     Cu1181   2.026       .  S
O1175      C1185   1.275       .  A
O1176     Cu1181   1.990       .  S
O1177     Cu1182   2.027       .  S
O1177      C1186   1.281       .  A
O1178     Cu1182   2.033       .  S
O1178      C1185   1.280       .  A
O1179     Cu1182   1.990       .  S
O1179      C1184   1.275       .  A
O1180     Cu1182   1.980       .  S
O1180      C1183   1.275       .  A
C1183      C1564   1.481       .  S
C1184      C1494   1.485       .  S
C1185      C1447   1.477       .  S
O1187     Cu1195   2.031       .  S
O1187      C1197   1.282       .  A
O1188     Cu1195   2.031       .  S
O1188      C1198   1.280       .  A
O1189     Cu1195   1.987       .  S
O1189      C1199   1.275       .  A
O1190     Cu1195   1.982       .  S
O1190      C1200   1.276       .  A
O1191     Cu1196   2.035       .  S
O1191      C1200   1.281       .  A
O1192     Cu1196   2.030       .  S
O1192      C1199   1.282       .  A
O1193     Cu1196   1.986       .  S
O1193      C1198   1.276       .  A
O1194     Cu1196   1.987       .  S
O1194      C1197   1.275       .  A
Cu1195    Cu1196   2.368       .  S
C1197      C1474   1.485       .  S
C1198      C1517   1.483       .  S
C1199      C1457   1.483       .  S
C1200      C1437   1.486       .  S
O1201     Cu1209   1.982       .  S
O1201      C1211   1.276   1_554  A
O1202     Cu1209   1.991       .  S
O1202      C1212   1.275   1_554  A
O1204     Cu1209   2.028   1_556  S
O1204      C1214   1.281       .  A
O1205     Cu1210   1.990       .  S
O1205      C1214   1.275       .  A
O1206     Cu1210   1.985       .  S
O1206      C1213   1.276       .  A
O1207     Cu1210   2.028       .  S
O1207      C1212   1.282       .  A
O1208     Cu1210   2.036       .  S
O1208      C1211   1.281       .  A
Cu1209    Cu1210   2.369   1_554  S
C1211      C1484   1.484       .  S
C1212      C1414   1.484       .  S
C1213      C1404   1.478   1_556  S
C1214      C1427   1.481       .  S
O1215     Cu1223   1.987       .  S
O1215      C1225   1.276       .  A
O1216     Cu1223   1.989       .  S
O1216      C1226   1.275       .  A
O1217     Cu1223   2.030       .  S
O1217      C1227   1.280       .  A
O1218     Cu1223   2.026       .  S
O1218      C1228   1.281       .  A
O1219     Cu1224   1.992       .  S
O1219      C1228   1.275       .  A
O1220     Cu1224   1.986       .  S
O1220      C1227   1.276       .  A
O1221     Cu1224   2.028       .  S
O1221      C1226   1.282       .  A
O1222     Cu1224   2.033       .  S
O1222      C1225   1.280       .  A
Cu1223    Cu1224   2.369       .  S
C1225      C1444   1.484       .  S
C1226      C1394   1.484       .  S
C1227      C1387   1.478       .  S
C1228      C1424   1.482       .  S
O1229     Cu1237   1.983       .  S
O1229      C1239   1.275       .  A
O1230     Cu1237   1.987       .  S
O1230      C1240   1.274       .  A
O1231     Cu1237   2.035       .  S
O1231      C1241   1.281       .  A
O1232     Cu1237   2.031       .  S
O1233     Cu1238   1.984       .  S
O1233      C1242   1.274       .  A
O1234      C1241   1.275       .  A
O1235     Cu1238   2.031       .  S
O1236     Cu1238   2.033       .  S
C1239      C1467   1.482       .  S
C1240      C1417   1.484       .  S
C1241      C1364   1.485       .  S
C1242      C1377   1.485       .  S
O1243     Cu1251   1.978       .  S
O1243      C1253   1.275       .  A
O1244     Cu1251   1.985       .  S
O1244      C1254   1.274       .  A
O1245     Cu1251   2.030       .  S
O1245      C1255   1.280       .  A
O1246     Cu1251   2.027       .  S
O1246      C1256   1.282       .  A
O1247     Cu1252   1.988       .  S
O1247      C1256   1.274       .  A
O1248     Cu1252   1.985       .  S
O1248      C1255   1.276       .  A
O1249     Cu1252   2.032       .  S
O1249      C1254   1.282       .  A
O1250     Cu1252   2.039       .  S
O1250      C1253   1.281       .  A
Cu1251    Cu1252   2.369       .  S
C1253      C1434   1.482       .  S
C1254      C1397   1.483       .  S
C1255      C1357   1.476       .  S
C1256      C1374   1.485       .  S
O1257     Cu1265   2.033       .  S
O1257      C1267   1.282       .  A
O1258     Cu1265   2.031       .  S
O1258      C1268   1.280       .  A
O1259     Cu1265   1.991       .  S
O1259      C1269   1.275       .  A
O1260     Cu1265   1.983       .  S
O1260      C1270   1.276       .  A
O1261     Cu1266   2.029       .  S
O1261      C1270   1.280       .  A
O1262     Cu1266   2.025       .  S
O1262      C1269   1.281       .  A
O1263     Cu1266   1.986       .  S
O1263      C1268   1.276       .  A
O1264     Cu1266   1.988       .  S
O1264      C1267   1.275       .  A
Cu1265    Cu1266   2.368       .  S
C1267      C1337   1.487       .  S
C1268      C1407   1.484       .  S
C1269      C1344   1.482       .  S
C1270      C1607   1.483       .  S
O1271     Cu1279   2.035       .  S
O1271      C1281   1.280       .  A
O1272     Cu1279   2.031       .  S
O1272      C1282   1.282       .  A
O1273     Cu1279   1.983       .  S
O1273      C1283   1.275       .  A
O1274     Cu1279   1.985       .  S
O1274      C1284   1.275       .  A
O1275     Cu1280   2.031       .  S
O1275      C1284   1.282       .  A
O1276     Cu1280   2.031       .  S
O1276      C1283   1.280       .  A
O1277     Cu1280   1.988       .  S
O1277      C1282   1.275       .  A
O1278     Cu1280   1.981       .  S
O1278      C1281   1.276       .  A
Cu1279    Cu1280   2.369       .  S
C1281      C1367   1.479       .  S
C1282      C1327   1.484       .  S
C1283      C1544   1.484       .  S
C1284      C1347   1.481       .  S
O1285      C1295   1.280       .  A
O1286     Cu1293   2.028       .  S
O1287      C1297   1.275       .  A
O1288     Cu1293   1.984       .  S
O1289     Cu1294   2.033       .  S
O1289      C1298   1.282       .  A
O1290     Cu1294   2.034       .  S
O1290      C1297   1.281       .  A
O1291     Cu1294   1.993       .  S
O1291      C1296   1.275       .  A
O1292     Cu1294   1.987       .  S
O1292      C1295   1.276       .  A
C1295      C1384   1.483       .  S
C1296      C1334   1.481       .  S
C1297      C1574   1.483       .  S
O1299     Cu1307   2.025       .  S
O1299      C1309   1.281       .  A
O1300     Cu1307   2.032       .  S
O1300      C1310   1.280       .  A
O1301     Cu1307   1.990       .  S
O1301      C1311   1.275       .  A
O1302     Cu1307   1.985       .  S
O1302      C1312   1.276       .  A
O1303     Cu1308   2.030       .  S
O1303      C1312   1.280       .  A
O1304     Cu1308   2.027       .  S
O1304      C1311   1.282       .  A
O1305     Cu1308   1.985       .  S
O1305      C1310   1.276       .  A
O1306     Cu1308   1.993       .  S
O1306      C1309   1.276       .  A
Cu1307    Cu1308   2.369       .  S
C1309      C1324   1.483       .  S
C1310      C1354   1.483       .  S
C1311      C1317   1.485       .  S
C1312      C1527   1.475       .  S
C1313      C1314   1.403   1_554  A
C1313      C1318   1.399       .  A
C1314      C1315   1.412       .  A
C1315      C1316   1.397       .  A
C1315      F1322   1.357       .  S
C1316      C1317   1.403       .  A
C1316      H1321   1.082       .  S
C1317      C1318   1.412   1_556  A
C1318      F1319   1.357       .  S
C1323      C1324   1.406       .  A
C1323      C1328   1.400       .  A
C1323      H1330   1.080       .  S
C1324      C1325   1.404       .  A
C1325      C1326   1.398       .  A
C1325      F1332   1.355       .  S
C1326      C1327   1.406       .  A
C1326      H1331   1.080       .  S
C1327      C1328   1.404       .  A
C1328      F1329   1.354       .  S
C1333      C1334   1.407       .  A
C1333      C1338   1.400       .  A
C1333      H1340   1.083       .  S
C1334      C1335   1.404       .  A
C1335      C1336   1.398       .  A
C1335      F1342   1.357       .  S
C1336      C1337   1.409       .  A
C1336      H1341   1.082       .  S
C1337      C1338   1.407       .  A
C1338      F1339   1.357       .  S
C1343      C1344   1.408       .  A
C1343      C1348   1.399       .  A
C1343      H1350   1.083       .  S
C1344      C1345   1.406       .  A
C1345      C1346   1.397       .  A
C1345      F1352   1.357       .  S
C1346      C1347   1.407       .  A
C1346      H1351   1.083       .  S
C1347      C1348   1.405       .  A
C1348      F1349   1.357       .  S
C1353      C1354   1.405       .  A
C1353      C1358   1.390   1_565  A
C1353      H1360   1.083       .  S
C1354      C1355   1.411   1_565  A
C1355      C1356   1.406       .  A
C1355      F1362   1.357   1_545  S
C1356      C1357   1.405       .  A
C1356      H1361   1.083       .  S
C1357      C1358   1.404       .  A
C1358      F1359   1.358       .  S
C1363      C1364   1.409       .  A
C1363      C1368   1.408       .  A
C1363      H1370   1.083       .  S
C1364      C1365   1.409       .  A
C1365      C1366   1.388       .  A
C1365      F1372   1.358   1_556  S
C1366      C1367   1.402       .  A
C1366      H1371   1.084       .  S
C1367      C1368   1.407       .  A
C1368      F1369   1.356       .  S
C1373      C1374   1.402       .  A
C1373      C1378   1.397       .  A
C1373      H1380   1.081       .  S
C1374      C1375   1.412       .  A
C1375      C1376   1.399       .  A
C1375      F1382   1.357       .  S
C1376      C1377   1.403       .  A
C1377      C1378   1.412       .  A
C1378      F1379   1.357       .  S
C1383      C1384   1.404       .  A
C1383      C1388   1.390   1_565  A
C1383      H1390   1.083       .  S
C1384      C1385   1.411   1_565  A
C1385      C1386   1.406       .  A
C1386      C1387   1.406       .  A
C1386      H1391   1.083       .  S
C1387      C1388   1.406       .  A
C1388      F1389   1.358       .  S
C1393      C1394   1.401       .  A
C1393      C1398   1.397       .  A
C1393      H1400   1.080       .  S
C1394      C1395   1.410       .  A
C1395      C1396   1.399       .  A
C1395      F1402   1.355       .  S
C1396      C1397   1.401       .  A
C1396      H1401   1.080       .  S
C1397      C1398   1.410       .  A
C1398      F1399   1.355       .  S
C1403      C1408   1.406       .  A
C1403      H1410   1.083       .  S
C1404      C1405   1.406   1_554  A
C1405      C1406   1.390       .  A
C1405      F1412   1.358       .  S
C1406      H1411   1.083       .  S
C1407      C1408   1.411       .  A
C1408      F1409   1.357       .  S
C1413      C1414   1.401       .  A
C1413      C1418   1.398       .  A
C1413      H1420   1.080       .  S
C1414      C1415   1.410   1_556  A
C1416      H1421   1.080       .  S
C1417      C1418   1.410       .  A
C1418      F1419   1.355       .  S
C1423      C1424   1.408       .  A
C1423      C1428   1.399       .  A
C1423      H1430   1.083       .  S
C1424      C1425   1.406       .  A
C1425      C1426   1.398       .  A
C1425      F1432   1.357       .  S
C1426      C1427   1.407       .  A
C1426      H1431   1.083       .  S
C1427      C1428   1.405       .  A
C1428      F1429   1.357       .  S
C1433      C1434   1.407   1_455  A
C1433      C1438   1.408       .  A
C1433      H1440   1.083   1_455  S
C1434      C1435   1.407       .  A
C1435      C1436   1.388   1_655  A
C1435      F1442   1.358       .  S
C1436      C1437   1.405       .  A
C1436      H1441   1.083       .  S
C1437      C1438   1.411       .  A
C1438      F1439   1.357       .  S
C1443      C1444   1.404       .  A
C1443      C1448   1.390       .  A
C1443      H1450   1.083       .  S
C1444      C1445   1.411       .  A
C1445      C1446   1.407       .  A
C1445      F1452   1.357       .  S
C1446      C1447   1.406       .  A
C1446      H1451   1.083       .  S
C1447      C1448   1.405       .  A
C1448      F1449   1.358       .  S
C1453      C1454   1.408       .  A
C1453      C1458   1.399       .  A
C1453      H1460   1.083       .  S
C1455      F1462   1.357       .  S
C1456      C1457   1.408   1_554  A
C1457      C1458   1.406       .  A
C1458      F1459   1.357       .  S
C1463      C1464   1.401       .  A
C1463      C1468   1.389       .  A
C1463      H1470   1.084       .  S
C1464      C1465   1.406       .  A
C1465      C1466   1.407       .  A
C1465      F1472   1.357   1_556  S
C1466      C1467   1.409   1_455  A
C1466      H1471   1.083   1_456  S
C1467      C1468   1.409   1_655  A
C1468      F1469   1.358   1_455  S
C1473      C1474   1.407       .  A
C1473      C1478   1.398       .  A
C1473      H1480   1.080       .  S
C1474      C1475   1.405       .  A
C1475      C1476   1.399       .  A
C1475      F1482   1.355       .  S
C1476      C1477   1.406       .  A
C1476      H1481   1.080       .  S
C1477      C1478   1.404       .  A
C1478      F1479   1.355       .  S
C1483      C1488   1.389       .  A
C1483      H1490   1.083       .  S
C1484      C1485   1.411       .  A
C1485      C1486   1.407       .  A
C1485      F1492   1.357       .  S
C1486      H1491   1.083       .  S
C1487      C1488   1.405       .  A
C1488      F1489   1.358       .  S
C1493      C1494   1.404       .  A
C1493      C1498   1.397       .  A
C1493      H1500   1.083       .  S
C1494      C1495   1.414       .  A
C1495      C1496   1.399       .  A
C1495      F1502   1.357       .  S
C1496      C1497   1.401       .  A
C1496      H1501   1.083       .  S
C1497      C1498   1.409       .  A
C1498      F1499   1.358       .  S
C1503      C1504   1.403       .  A
C1503      C1508   1.398       .  A
C1503      H1510   1.081       .  S
C1504      C1505   1.412       .  A
C1505      C1506   1.397       .  A
C1505      F1512   1.357       .  S
C1506      C1507   1.402       .  A
C1506      H1511   1.081       .  S
C1507      C1508   1.412       .  A
C1508      F1509   1.357       .  S
C1513      C1514   1.406       .  A
C1513      C1518   1.406   1_565  A
C1513      H1520   1.083       .  S
C1514      C1515   1.405       .  A
C1515      C1516   1.390   1_565  A
C1515      F1522   1.358       .  S
C1516      C1517   1.404       .  A
C1516      H1521   1.083       .  S
C1517      C1518   1.411       .  A
C1518      F1519   1.357       .  S
C1523      C1524   1.409       .  A
C1523      C1528   1.407   1_455  A
C1523      H1530   1.083       .  S
C1524      C1525   1.409       .  A
C1525      C1526   1.389   1_455  A
C1525      F1532   1.358       .  S
C1526      C1527   1.400       .  A
C1526      H1531   1.084       .  S
C1527      C1528   1.407       .  A
C1528      F1529   1.357       .  S
C1533      C1534   1.406       .  A
C1533      C1538   1.406       .  A
C1533      H1540   1.083       .  S
C1534      C1535   1.405       .  A
C1535      C1536   1.390       .  A
C1535      F1542   1.358   1_556  S
C1536      C1537   1.405       .  A
C1536      H1541   1.083       .  S
C1537      C1538   1.411       .  A
C1538      F1539   1.357       .  S
C1543      C1544   1.409       .  A
C1543      C1548   1.406   1_655  A
C1543      H1550   1.083   1_556  S
C1544      C1545   1.409       .  A
C1545      C1546   1.389   1_655  A
C1545      F1552   1.357       .  S
C1546      C1547   1.401       .  A
C1546      H1551   1.084       .  S
C1547      C1548   1.407       .  A
C1553      C1554   1.403       .  A
C1553      C1558   1.399       .  A
C1553      H1560   1.082       .  S
C1554      C1555   1.412       .  A
C1555      C1556   1.397       .  A
C1555      F1562   1.358       .  S
C1556      C1557   1.402       .  A
C1556      H1561   1.083       .  S
C1557      C1558   1.412       .  A
C1558      F1559   1.357       .  S
C1563      C1564   1.408       .  A
C1563      C1568   1.406   1_545  A
C1563      H1570   1.083       .  S
C1564      C1565   1.409       .  A
C1565      C1566   1.390   1_545  A
C1565      F1572   1.358       .  S
C1566      C1567   1.400       .  A
C1566      H1571   1.084       .  S
C1567      C1568   1.407       .  A
C1568      F1569   1.357       .  S
C1573      C1574   1.409       .  A
C1573      C1578   1.407       .  A
C1573      H1580   1.083       .  S
C1574      C1575   1.409       .  A
C1575      C1576   1.388       .  A
C1575      F1582   1.358       .  S
C1576      C1577   1.401       .  A
C1576      H1581   1.084       .  S
C1577      C1578   1.407       .  A
C1578      F1579   1.357       .  S
C1583      C1584   1.402       .  A
C1583      C1588   1.398       .  A
C1583      H1590   1.080       .  S
C1584      C1585   1.410       .  A
C1585      C1586   1.399       .  A
C1585      F1592   1.355       .  S
C1586      C1587   1.401       .  A
C1586      H1591   1.080       .  S
C1587      C1588   1.410       .  A
C1588      F1589   1.355       .  S
C1593      C1594   1.402   1_556  A
C1593      C1598   1.389       .  A
C1593      H1600   1.084       .  S
C1595      C1596   1.406       .  A
C1595      F1602   1.357       .  S
C1596      C1597   1.409       .  A
C1596      H1601   1.083       .  S
C1598      F1599   1.358       .  S
C1603      C1604   1.406       .  A
C1603      C1608   1.406       .  A
C1603      H1610   1.083       .  S
C1605      C1606   1.389       .  A
C1605      F1612   1.358       .  S
C1606      C1607   1.404       .  A
C1606      H1611   1.083       .  S
C1608      F1609   1.357       .  S
C1613      C1614   1.407   1_554  A
C1614      C1615   1.404       .  A
C1615      C1616   1.398       .  A
C1615      F1622   1.355       .  S
C1616      C1617   1.407       .  A
C1616      H1621   1.080       .  S
C1618      F1619   1.355       .  S
C1623      C1624   1.403       .  A
C1623      C1628   1.397       .  A
C1623      H1630   1.083       .  S
C1624      C1625   1.412       .  A
C1625      C1626   1.399       .  A
C1625      F1632   1.357       .  S
C1626      C1627   1.403       .  A
C1626      H1631   1.083       .  S
C1627      C1628   1.412       .  A
C1628      F1629   1.358       .  S
