geometry optimzed in LAMMPS
_audit_creation_date              2020-12-01 
_audit_creation_method            'lammps2cif' 
_symmetry_space_group_name_H-M    'P1' 
_symmetry_Int_Tables_number       1 
_symmetry_cell_setting            triclinic 
loop_ 
_symmetry_equiv_pos_as_xyz 
  x,y,z 
_cell_length_a                    48.57834045 
_cell_length_b                    48.63268370970336 
_cell_length_c                    32.20717426427445 
_cell_angle_alpha                 90.07911778790307 
_cell_angle_beta                  90.2286851013753 
_cell_angle_gamma                 120.03287692363736 
loop_ 
_atom_site_label 
_atom_site_type_symbol 
_atom_site_fract_x 
_atom_site_fract_y 
_atom_site_fract_z 
_atom_site_charge 
In1        In  0.33237668  0.86807597  0.58008772     1.36900
C2          C  0.35952279  0.93101920  0.57136170     0.77100
O3          O  0.31167260  0.87673731  0.63757585    -0.61400
O4          O  0.33441233  0.84936818  0.64275663    -0.52300
C5          C  0.28028731  0.82209077  0.54266150     0.69700
O6          O  0.29604525  0.84974071  0.52794188    -0.47100
C7          C  0.37736308  0.85935528  0.54605521     0.74400
O8          O  0.33014736  0.91263667  0.56491820    -0.59000
O9          O  0.37479433  0.86110373  0.58477964    -0.49100
O10         O  0.37421032  0.91693199  0.58191000    -0.55400
C11         C  0.32059308  0.86198252  0.66122421     0.84600
O12         O  0.29013981  0.81863642  0.57740350    -0.57300
O13         O  0.35603970  0.86073404  0.52529663    -0.60600
In14       In  0.13506949  0.65552980  0.42786730     1.36900
C15         C  0.07181589  0.62629055  0.43151378     0.77100
O16         O  0.12963603  0.67866811  0.37061347    -0.61400
O17         O  0.14682477  0.64658457  0.36368973    -0.52300
C18         C  0.17823273  0.71059034  0.46265209     0.69700
O19         O  0.14963687  0.69539562  0.47409020    -0.47100
C20         C  0.14712942  0.61501119  0.46880531     0.74400
O21         O  0.08939077  0.65444197  0.44422725    -0.59000
O22         O  0.15504633  0.62265230  0.43153825    -0.49100
O23         O  0.08688178  0.61337052  0.41801099    -0.55400
C24         C  0.13865126  0.66457692  0.34601473     0.84600
O25         O  0.18437712  0.69811549  0.43238358    -0.57300
O26         O  0.13390749  0.62895925  0.48516692    -0.60600
In27       In  0.32728887  0.86880077  0.92234037     1.36900
C28         C  0.35641538  0.93183511  0.92216953     0.77100
O29         O  0.35671981  0.87358427  0.97841776    -0.61400
O30         O  0.36164050  0.85049394  0.92583790    -0.52300
C31         C  0.27298430  0.82778185  0.96000479     0.69700
O32         O  0.29047949  0.85585674  0.97269441    -0.47100
C33         C  0.31752826  0.86026075  0.84085399     0.74400
O34         O  0.32770576  0.91498512  0.93292749    -0.59000
O35         O  0.33216814  0.84953925  0.86155811    -0.49100
O36         O  0.36947131  0.91620055  0.91138452    -0.55400
C37         C  0.37093018  0.86064044  0.96221891     0.84600
O38         O  0.28305351  0.82105763  0.92784950    -0.57300
O39         O  0.30690476  0.87463175  0.86235272    -0.60600
In40       In  0.12539015  0.67233893  0.08408483     1.36900
C41         C  0.06226334  0.64770886  0.07730420     0.77100
O42         O  0.12659774  0.64701995  0.02659932    -0.61400
O43         O  0.14591024  0.63998916  0.08184586    -0.52300
C44         C  0.16810736  0.72741318  0.04923313     0.69700
O45         O  0.14059453  0.71009192  0.03465016    -0.47100
C46         C  0.13128085  0.67063706  0.16644432     0.74400
O47         O  0.08051839  0.67597760  0.08883072    -0.59000
O48         O  0.13417091  0.65222810  0.14165543    -0.49100
O49         O  0.07643375  0.63272035  0.06912172    -0.55400
C50         C  0.13942780  0.63298926  0.04400772     0.84600
O51         O  0.17315769  0.71732144  0.08266906    -0.57300
O52         O  0.12567975  0.69054509  0.14880521    -0.60600
In53       In  0.13634298  0.45765150  0.59215989     1.36900
C54         C  0.07316546  0.42215163  0.58260742     0.77100
O55         O  0.12582329  0.43240677  0.65340291    -0.61400
O56         O  0.15802449  0.48200714  0.65239599    -0.52300
C57         C  0.17854269  0.44494552  0.55725130     0.69700
O58         O  0.15127237  0.43548963  0.54205651    -0.47100
C59         C  0.14841848  0.51211448  0.55681538     0.74400
O60         O  0.09098761  0.41017533  0.58256972    -0.59000
O61         O  0.14579957  0.50771693  0.59546066    -0.49100
O62         O  0.08795049  0.45185355  0.58704829    -0.55400
C63         C  0.14338098  0.45728566  0.67403715     0.84600
O64         O  0.18352900  0.45976961  0.59100996    -0.57300
O65         O  0.14626559  0.48894986  0.53641650    -0.60600
In66       In  0.33497987  0.46193839  0.42553260     1.36900
C67         C  0.36693875  0.43042299  0.42406332     0.77100
O68         O  0.31155590  0.43467509  0.36670367    -0.61400
O69         O  0.33923965  0.48485062  0.36439160    -0.52300
C70         C  0.28167283  0.44780057  0.46604778     0.69700
O71         O  0.30039404  0.43858403  0.47827412    -0.47100
C72         C  0.37616744  0.51642154  0.46240163     0.74400
O73         O  0.33813983  0.41737462  0.43491317    -0.59000
O74         O  0.36696364  0.51493752  0.42544309    -0.49100
O75         O  0.37886383  0.45926352  0.41496509    -0.55400
C76         C  0.32307819  0.45928872  0.34444244     0.84600
O77         O  0.28986414  0.46336576  0.43278916    -0.57300
O78         O  0.36323870  0.49002730  0.48075634    -0.60600
In79       In  0.13549847  0.47451456  0.93305464     1.36900
C80         C  0.07355075  0.43711668  0.94580656     0.77100
O81         O  0.14028821  0.52256796  0.92508031    -0.61400
O82         O  0.14525768  0.50859214  0.98560264    -0.52300
C83         C  0.18053615  0.46611663  0.96775783     0.69700
O84         O  0.15323320  0.45515376  0.98326970    -0.47100
C85         C  0.13926987  0.46569011  0.85230326     0.74400
O86         O  0.08612582  0.46596127  0.93607891    -0.59000
O87         O  0.15472032  0.49253007  0.86963788    -0.49100
O88         O  0.09302924  0.42730770  0.95010483    -0.55400
C89         C  0.14417276  0.52930653  0.96324101     0.84600
O90         O  0.18469207  0.48143140  0.93467171    -0.57300
O91         O  0.12230740  0.44334542  0.87663395    -0.60600
In92       In  0.33710634  0.46860927  0.08384291     1.36900
C93         C  0.36328962  0.43204313  0.07783382     0.77100
O94         O  0.36203352  0.49565671  0.02680524    -0.61400
O95         O  0.37771926  0.51888818  0.08490454    -0.52300
C96         C  0.28395910  0.46119431  0.04896525     0.69700
O97         O  0.29825440  0.44745931  0.03517042    -0.47100
C98         C  0.32638886  0.46535758  0.16499660     0.74400
O99         O  0.33439947  0.42180151  0.06893852    -0.59000
O100        O  0.34175763  0.49114099  0.14562003    -0.49100
O101        O  0.37796816  0.46044510  0.09014171    -0.55400
C102        C  0.38183564  0.52026828  0.04619971     0.84600
O103        O  0.29656028  0.47800238  0.08074664    -0.57300
O104        O  0.31572967  0.44090900  0.14225214    -0.60600
In105      In  0.53234012  0.86862348  0.41536159     1.36900
C106        C  0.56859525  0.93178516  0.41830039     0.77100
O107        O  0.55539427  0.86334020  0.35747172    -0.61400
O108        O  0.50816095  0.85434992  0.35365587    -0.52300
C109        C  0.54016671  0.82358226  0.45018249     0.69700
O110        O  0.56272163  0.85190456  0.44775229    -0.47100
C111        C  0.48201774  0.86134941  0.45771733     0.74400
O112        O  0.57581984  0.91375659  0.43780852    -0.59000
O113        O  0.48109414  0.85449938  0.41985170    -0.49100
O114        O  0.54357230  0.91724798  0.39701332    -0.55400
C115        C  0.53133002  0.85551231  0.33477961     0.84600
O116        O  0.51444764  0.81874468  0.43410889    -0.57300
O117        O  0.50908783  0.87188363  0.47426206    -0.60600
In118      In  0.53625606  0.66945724  0.57449848     1.36900
C119        C  0.57268612  0.64302646  0.56683136     0.77100
O120        O  0.56279896  0.68988625  0.63462795    -0.61400
O121        O  0.51255369  0.66646947  0.63446315    -0.52300
C122        C  0.54213178  0.72069894  0.53675906     0.69700
O123        O  0.55944471  0.70913013  0.52721334    -0.47100
C124        C  0.48242288  0.62418867  0.54117535     0.74400
O125        O  0.58385682  0.67264123  0.56403326    -0.59000
O126        O  0.48749577  0.62769551  0.57970272    -0.49100
O127        O  0.54319448  0.62746864  0.57298192    -0.55400
C128        C  0.53777314  0.68043601  0.65552043     0.84600
O129        O  0.52383774  0.70721828  0.56672779    -0.57300
O130        O  0.50507555  0.64449525  0.51941184    -0.60600
In131      In  0.52945443  0.86378662  0.07541633     1.36900
C132        C  0.56545375  0.92693385  0.07078147     0.77100
O133        O  0.50292068  0.86440385  0.01837622    -0.61400
O134        O  0.47999302  0.85575041  0.07672647    -0.52300
C135        C  0.53463126  0.81846462  0.03586088     0.69700
O136        O  0.55680294  0.84705422  0.03618185    -0.47100
C137        C  0.53191856  0.85221707  0.15593879     0.74400
O138        O  0.57443629  0.90869880  0.05584107    -0.59000
O139        O  0.50649995  0.84466765  0.13668138    -0.49100
O140        O  0.53900633  0.91270534  0.08867503    -0.55400
C141        C  0.47833041  0.85899108  0.03812979     0.84600
O142        O  0.51077919  0.81331607  0.05693195    -0.57300
O143        O  0.55621617  0.86443271  0.13322477    -0.60600
In144      In  0.53632620  0.66540929  0.91551675     1.36900
C145        C  0.57369486  0.64000401  0.92295661     0.77100
O146        O  0.51185991  0.64122410  0.97465280    -0.61400
O147        O  0.48634921  0.62545810  0.91801201    -0.52300
C148        C  0.54052954  0.71712444  0.94973844     0.69700
O149        O  0.56201858  0.70999988  0.95441593    -0.47100
C150        C  0.53550168  0.67492354  0.83420041     0.74400
O151        O  0.58372338  0.66888331  0.93122861    -0.59000
O152        O  0.51185092  0.65474759  0.85418389    -0.49100
O153        O  0.54536171  0.62515445  0.91032025    -0.55400
C154        C  0.48609662  0.62191826  0.95674377     0.84600
O155        O  0.51778830  0.69823612  0.92684669    -0.57300
O156        O  0.56013880  0.69060037  0.85616393    -0.60600
In157      In  0.87399648  0.33409154  0.93477562     1.36900
C158        C  0.93672533  0.36479023  0.94524215     0.77100
O159        O  0.88047525  0.31352562  0.87519088    -0.61400
O160        O  0.85662644  0.33972094  0.87286304    -0.52300
C161        C  0.82931777  0.28024549  0.96835192     0.69700
O162        O  0.85813060  0.28744362  0.96807112    -0.47100
C163        C  0.86418998  0.37581660  0.97594111     0.74400
O164        O  0.92189963  0.37689977  0.92840739    -0.59000
O165        O  0.86021199  0.37156700  0.93720703    -0.49100
O166        O  0.91942516  0.33622238  0.95619781    -0.55400
C167        C  0.86708490  0.32467132  0.85283074     0.84600
O168        O  0.82356453  0.29970866  0.95022005    -0.57300
O169        O  0.87275897  0.35813722  0.99355316    -0.60600
In170      In  0.66653989  0.12796374  0.07634216     1.36900
C171        C  0.63792213  0.06461356  0.07156895     0.77100
O172        O  0.68920988  0.12457972  0.13624518    -0.61400
O173        O  0.66150418  0.14685822  0.13742314    -0.52300
C174        C  0.72103637  0.17288000  0.04292694     0.69700
O175        O  0.70972378  0.14375564  0.03491201    -0.47100
C176        C  0.62389833  0.13710972  0.03502280     0.74400
O177        O  0.66661485  0.08235915  0.06139448    -0.59000
O178        O  0.62751050  0.13995057  0.07389228    -0.49100
O179        O  0.62450053  0.07947679  0.08415527    -0.55400
C180        C  0.67824608  0.13856181  0.15784148     0.84600
O181        O  0.70450832  0.17832921  0.06799188    -0.57300
O182        O  0.64258661  0.12994540  0.01732151    -0.60600
In183      In  0.87220820  0.33039530  0.59042920     1.36900
C184        C  0.93531509  0.35731354  0.58247101     0.77100
O185        O  0.87069109  0.35498330  0.53177497    -0.61400
O186        O  0.86174279  0.37009955  0.58909293    -0.52300
C187        C  0.82658077  0.27650425  0.55572984     0.69700
O188        O  0.85570412  0.28757828  0.54835632    -0.47100
C189        C  0.86520695  0.32382737  0.67276727     0.74400
O190        O  0.91686321  0.32788831  0.57687715    -0.59000
O191        O  0.85448224  0.33780366  0.65097710    -0.49100
O192        O  0.92131128  0.37207455  0.59282456    -0.55400
C193        C  0.86494547  0.37437874  0.55050069     0.84600
O194        O  0.82121714  0.29246291  0.58193655    -0.57300
O195        O  0.87850803  0.31175494  0.65195636    -0.60600
In196      In  0.67326384  0.13250813  0.41823611     1.36900
C197        C  0.64447582  0.06931324  0.41968143     0.77100
O198        O  0.64274541  0.12470955  0.47397692    -0.61400
O199        O  0.63458217  0.14485823  0.42037755    -0.52300
C200        C  0.72365880  0.17607368  0.46088836     0.69700
O201        O  0.72017968  0.14916096  0.45232059    -0.47100
C202        C  0.68623899  0.14405121  0.33740044     0.74400
O203        O  0.66951244  0.08646215  0.44043931    -0.59000
O204        O  0.66989464  0.15308323  0.35735250    -0.49100
O205        O  0.63521417  0.08473725  0.39809564    -0.55400
C206        C  0.62658344  0.13546686  0.45721645     0.84600
O207        O  0.70267405  0.18092067  0.44540827    -0.57300
O208        O  0.69786702  0.13109772  0.35973893    -0.60600
In209      In  0.46650649  0.13222363  0.91480189     1.36900
C210        C  0.43098645  0.06914264  0.91876921     0.77100
O211        O  0.43995504  0.12516965  0.85484595    -0.61400
O212        O  0.49013379  0.15314655  0.85433207    -0.52300
C213        C  0.45300217  0.17386852  0.94944370     0.69700
O214        O  0.44182279  0.14592648  0.96276365    -0.47100
C215        C  0.51945475  0.14190370  0.95387215     0.74400
O216        O  0.41982374  0.08711162  0.92644750    -0.59000
O217        O  0.51734142  0.14316196  0.91497410    -0.49100
O218        O  0.45979789  0.08366667  0.90865916    -0.55400
C219        C  0.46462917  0.14117993  0.83352063     0.84600
O220        O  0.47095190  0.18032965  0.91851917    -0.57300
O221        O  0.49472791  0.13686265  0.97286133    -0.60600
In222      In  0.46429711  0.33240780  0.06826368     1.36900
C223        C  0.43206453  0.36346921  0.06623836     0.77100
O224        O  0.43693522  0.31228649  0.12737751    -0.61400
O225        O  0.48732016  0.33729642  0.12978160    -0.52300
C226        C  0.45065952  0.27719100  0.03286205     0.69700
O227        O  0.44026255  0.29445452  0.01870687    -0.47100
C228        C  0.51792954  0.37347820  0.02989339     0.74400
O229        O  0.41925460  0.33432055  0.05704604    -0.59000
O230        O  0.51712379  0.36613016  0.06753949    -0.49100
O231        O  0.46095866  0.37609607  0.07602106    -0.55400
C232        C  0.46161814  0.32271951  0.14965036     0.84600
O233        O  0.46722695  0.28792224  0.06526697    -0.57300
O234        O  0.49133526  0.35873359  0.01172426    -0.60600
In235      In  0.46870097  0.13147318  0.57299408     1.36900
C236        C  0.43162149  0.06848744  0.56824173     0.77100
O237        O  0.49313812  0.12726187  0.51630471    -0.61400
O238        O  0.51882350  0.14091143  0.57306651    -0.52300
C239        C  0.46513926  0.17771606  0.53287048     0.69700
O240        O  0.44220046  0.14950814  0.53344265    -0.47100
C241        C  0.46769379  0.14283853  0.65403813     0.74400
O242        O  0.42250727  0.08701064  0.55468753    -0.59000
O243        O  0.49243342  0.14901932  0.63447000    -0.49100
O244        O  0.45868297  0.08235589  0.58499056    -0.55400
C245        C  0.51891737  0.13497460  0.53495420     0.84600
O246        O  0.48875391  0.18211257  0.55418635    -0.57300
O247        O  0.44309045  0.13174317  0.63151119    -0.60600
In248      In  0.47272603  0.33516020  0.40953498     1.36900
C249        C  0.43715848  0.36268759  0.41554253     0.77100
O250        O  0.49680844  0.36301494  0.46671688    -0.61400
O251        O  0.52383695  0.37388237  0.41155007    -0.52300
C252        C  0.46601770  0.28251630  0.44551012     0.69700
O253        O  0.44433358  0.28958750  0.44579824    -0.47100
C254        C  0.46852019  0.32279399  0.32851318     0.74400
O255        O  0.42949814  0.33640988  0.43240591    -0.59000
O256        O  0.49444056  0.34058938  0.34683594    -0.49100
O257        O  0.46268755  0.37425175  0.39531507    -0.55400
C258        C  0.52320228  0.38024009  0.44940737     0.84600
O259        O  0.49050593  0.30210490  0.42610005    -0.57300
O260        O  0.44469887  0.31034283  0.35210966    -0.60600
In261      In  0.66741872  0.53380495  0.91489665     1.36900
C262        C  0.64003336  0.56911017  0.92443176     0.77100
O263        O  0.68488563  0.56319495  0.85738012    -0.61400
O264        O  0.66596776  0.51334828  0.85201726    -0.52300
C265        C  0.72012313  0.54338457  0.95331612     0.69700
O266        O  0.70188281  0.55226245  0.96812037    -0.47100
C267        C  0.62366524  0.47892603  0.94789802     0.74400
O268        O  0.66958469  0.58054151  0.92965616    -0.59000
O269        O  0.62852259  0.48271887  0.90936499    -0.49100
O270        O  0.62543353  0.54030162  0.91402262    -0.55400
C271        C  0.67709305  0.53971120  0.83372261     0.84600
O272        O  0.71240523  0.53117704  0.91763751    -0.57300
O273        O  0.64211294  0.50286765  0.96938306    -0.60600
In274      In  0.86385518  0.53262104  0.08751409     1.36900
C275        C  0.92559000  0.57368050  0.07622376     0.77100
O276        O  0.87303369  0.55899006  0.14800119    -0.61400
O277        O  0.84292259  0.50916514  0.14871284    -0.52300
C278        C  0.81909246  0.53977254  0.04885711     0.69700
O279        O  0.84780524  0.55408302  0.03791970    -0.47100
C280        C  0.85746565  0.47960692  0.05386136     0.74400
O281        O  0.90554567  0.58267854  0.08108246    -0.59000
O282        O  0.86215408  0.48564085  0.09223637    -0.49100
O283        O  0.91398616  0.54404076  0.07712842    -0.55400
C284        C  0.85634506  0.53458944  0.16946148     0.84600
O285        O  0.81352722  0.52242949  0.08026172    -0.57300
O286        O  0.85577617  0.50067563  0.03314344    -0.60600
In287      In  0.66899781  0.53943728  0.57382622     1.36900
C288        C  0.64086092  0.57399094  0.56520577     0.77100
O289        O  0.64624253  0.51434526  0.51405903    -0.61400
O290        O  0.62931548  0.48946832  0.57073759    -0.52300
C291        C  0.72322586  0.54570683  0.54486866     0.69700
O292        O  0.71452803  0.56564296  0.53678517    -0.47100
C293        C  0.67797630  0.54227890  0.65528025     0.74400
O294        O  0.66998681  0.58510733  0.55701842    -0.59000
O295        O  0.66362739  0.51647347  0.63552220    -0.49100
O296        O  0.62682425  0.54576229  0.57793510    -0.55400
C297        C  0.62667372  0.48880771  0.53170322     0.84600
O298        O  0.70435693  0.52343755  0.56800171    -0.57300
O299        O  0.68807048  0.56684405  0.63327211    -0.60600
In300      In  0.87067254  0.53091150  0.42897210     1.36900
C301        C  0.93399145  0.56422565  0.43228775     0.77100
O302        O  0.87517539  0.50578336  0.48444386    -0.61400
O303        O  0.85855388  0.47999605  0.42796417    -0.52300
C304        C  0.82758909  0.53925098  0.46938701     0.69700
O305        O  0.85548397  0.56183208  0.46338523    -0.47100
C306        C  0.85980949  0.53491782  0.34866610     0.74400
O307        O  0.91700107  0.57243394  0.45246295    -0.59000
O308        O  0.84971935  0.50877623  0.36702997    -0.49100
O309        O  0.91828579  0.53961388  0.41054455    -0.55400
C310        C  0.86607492  0.47986928  0.46546089     0.84600
O311        O  0.82189856  0.51316876  0.45383633    -0.57300
O312        O  0.87348237  0.55886207  0.37210880    -0.60600
C313        C  0.75602594  0.52033558  0.53528734    -0.09700
C314        C  0.75219974  0.54675821  0.52808617     0.06500
C315        C  0.77539833  0.57220924  0.50429731    -0.03400
C316        C  0.80067419  0.57000038  0.48682594    -0.07900
C317        C  0.80316229  0.54268242  0.49221261     0.05600
C318        C  0.78102448  0.51809730  0.51770513    -0.02900
Br319      Br  0.78412465  0.48118557  0.53087599    -0.02600
H320        H  0.73908649  0.50079074  0.55413920     0.09600
H321        H  0.81780193  0.58922548  0.46772200     0.07600
Br322      Br  0.77411882  0.61041240  0.49397494    -0.03000
C323        C  0.87940070  0.56146050  0.23661749    -0.09700
C324        C  0.85444020  0.53583667  0.21530606     0.06500
C325        C  0.82968965  0.51140669  0.23850709    -0.03400
C326        C  0.83140465  0.51203750  0.28197317    -0.07900
C327        C  0.85707925  0.53703423  0.30316043     0.05600
C328        C  0.88098260  0.56225357  0.27999777    -0.02900
Br329      Br  0.91814283  0.59690165  0.30514677    -0.02600
H330        H  0.89863913  0.58042596  0.21943145     0.09600
H331        H  0.81263436  0.49273480  0.29933444     0.07600
Br332      Br  0.79243755  0.47718959  0.21304009    -0.03000
C333        C  0.68675042  0.52177302  0.76599074    -0.09700
C334        C  0.67997277  0.54252959  0.78817205     0.06500
C335        C  0.67438988  0.56438471  0.76616935    -0.03400
C336        C  0.67540513  0.56490393  0.72281502    -0.07900
C337        C  0.68121141  0.54350447  0.70072612     0.05600
C338        C  0.68752045  0.52218050  0.72258934    -0.02900
Br339      Br  0.69848897  0.49404938  0.69477344    -0.02600
H340        H  0.69135653  0.50507087  0.78249482     0.09600
H341        H  0.67006866  0.58106128  0.70621574     0.07600
Br342      Br  0.66179127  0.59166520  0.79292806    -0.03000
C343        C  0.74204463  0.53769675  0.01988093    -0.09700
C344        C  0.74670127  0.54489624  0.97743570     0.06500
C345        C  0.77559473  0.55139483  0.95908052    -0.03400
C346        C  0.79909144  0.55041696  0.98326742    -0.07900
C347        C  0.79411028  0.54228149  0.02555742     0.05600
C348        C  0.76513250  0.53590749  0.04387093    -0.02900
Br349      Br  0.75538814  0.52504582  0.10134608    -0.02600
H350        H  0.71981515  0.53244968  0.03428692     0.09600
H351        H  0.82114851  0.55538223  0.96862117     0.07600
Br352      Br  0.78470247  0.56269394  0.90166079    -0.03000
C353        C  0.57808818  0.43589813  0.53326875    -0.09700
C354        C  0.60178646  0.46048048  0.50947480     0.06500
C355        C  0.60036463  0.45736457  0.46575606    -0.03400
C356        C  0.57506190  0.43055560  0.44708975    -0.07900
C357        C  0.55076942  0.40658734  0.47097009     0.05600
C358        C  0.55283867  0.40922026  0.51465563    -0.02900
Br359      Br  0.52272920  0.37723484  0.55128229    -0.02600
H360        H  0.57885966  0.43752051  0.56686044     0.09600
H361        H  0.57402924  0.42885595  0.41351464     0.07600
Br362      Br  0.63178961  0.48834489  0.42933796    -0.03000
C363        C  0.43652738  0.20459334  0.50520728    -0.09700
C364        C  0.46482620  0.20361377  0.50907517     0.06500
C365        C  0.49275192  0.22796270  0.49077156    -0.03400
C366        C  0.49203912  0.25264822  0.46963238    -0.07900
C367        C  0.46408249  0.25441124  0.46674406     0.05600
C368        C  0.43598951  0.22990452  0.48495066    -0.02900
Br369      Br  0.39627260  0.22951145  0.48435180    -0.02600
H370        H  0.41492240  0.18609991  0.51917724     0.09600
H371        H  0.51388090  0.27097347  0.45595068     0.07600
Br372      Br  0.53268646  0.22870847  0.49232684    -0.03000
C373        C  0.54462892  0.40364582  0.96628368    -0.09700
C374        C  0.54690843  0.39820027  0.00868602     0.06500
C375        C  0.57591233  0.41799767  0.02973001    -0.03400
C376        C  0.60086677  0.44341638  0.00878491    -0.07900
C377        C  0.59798179  0.44956026  0.96686662     0.05600
C378        C  0.56966369  0.42886114  0.94533171    -0.02900
Br379      Br  0.56217093  0.43486587  0.88835612    -0.02600
H380        H  0.52277381  0.38875590  0.94937641     0.09600
H381        H  0.62255973  0.45886782  0.02568896     0.07600
Br382      Br  0.58331325  0.41283677  0.08711633    -0.03000
C383        C  0.48963361  0.32476256  0.21486440    -0.09700
C384        C  0.46128718  0.31889294  0.19531501     0.06500
C385        C  0.43448001  0.31131253  0.22015161    -0.03400
C386        C  0.43701726  0.31104170  0.26345596    -0.07900
C387        C  0.46591040  0.31859999  0.28290545     0.05600
C388        C  0.49219013  0.32468120  0.25803610    -0.02900
Br389      Br  0.53222840  0.33268502  0.28052327    -0.02600
H390        H  0.51029768  0.32999096  0.19644604     0.09600
H391        H  0.41661613  0.30638279  0.28206637     0.07600
Br392      Br  0.39444004  0.30354593  0.19792799    -0.03000
C393        C  0.49371228  0.16018011  0.76719767    -0.09700
C394        C  0.46437358  0.14476985  0.78775181     0.06500
C395        C  0.43613840  0.13185711  0.76372895    -0.03400
C396        C  0.43788596  0.13283163  0.72027696    -0.07900
C397        C  0.46728772  0.14652596  0.69977919     0.05600
C398        C  0.49548252  0.16121610  0.72391897    -0.02900
Br399      Br  0.53751104  0.18280973  0.70074922    -0.02600
H400        H  0.51568834  0.17081347  0.78487259     0.09600
H401        H  0.41598880  0.12184959  0.70245372     0.07600
Br402      Br  0.39434554  0.11207811  0.78750035    -0.03000
C403        C  0.44541951  0.19771246  0.01324919    -0.09700
C404        C  0.44712379  0.19766451  0.96981256     0.06500
C405        C  0.44565540  0.22175788  0.94725819    -0.03400
C406        C  0.44472531  0.24645976  0.96844385    -0.07900
C407        C  0.44571793  0.24790786  0.01201226     0.05600
C408        C  0.44500960  0.22262859  0.03443937    -0.02900
Br409      Br  0.44354202  0.22066578  0.09396783    -0.02600
H410        H  0.44598790  0.17906822  0.03096800     0.09600
H411        H  0.44476286  0.26540123  0.95072467     0.07600
Br412      Br  0.44454867  0.22199347  0.88764163    -0.03000
C413        C  0.56895676  0.13300689  0.53920910    -0.09700
C414        C  0.54681815  0.13624491  0.51457517     0.06500
C415        C  0.55187281  0.14035656  0.47136508    -0.03400
C416        C  0.57821940  0.14050087  0.45375188    -0.07900
C417        C  0.59993200  0.13641419  0.47819039     0.05600
C418        C  0.59521739  0.13293694  0.52159365    -0.02900
Br419      Br  0.62378873  0.12877423  0.55910078    -0.02600
H420        H  0.56562134  0.13006727  0.57249198     0.09600
H421        H  0.58149989  0.14349415  0.42046878     0.07600
Br422      Br  0.52459360  0.14708292  0.43460080    -0.03000
C423        C  0.86515732  0.40220080  0.48552715    -0.09700
C424        C  0.86328960  0.40054352  0.52909562     0.06500
C425        C  0.86178177  0.42499465  0.55105757    -0.03400
C426        C  0.86221969  0.45007736  0.52942522    -0.07900
C427        C  0.86439149  0.45187459  0.48602869     0.05600
C428        C  0.86595419  0.42757615  0.46394625    -0.02900
Br429      Br  0.87185688  0.42869970  0.40487640    -0.02600
H430        H  0.86682043  0.38404856  0.46805948     0.09600
H431        H  0.86115178  0.46858615  0.54688499     0.07600
Br432      Br  0.86059745  0.42715632  0.61056820    -0.03000
C433        C  0.76959724  0.24398526  0.53657855    -0.09700
C434        C  0.80044569  0.24847111  0.53408844     0.06500
C435        C  0.80530394  0.22709600  0.50959216    -0.03400
C436        C  0.77994195  0.20316680  0.48657856    -0.07900
C437        C  0.74958823  0.20000412  0.48747298     0.05600
C438        C  0.74437728  0.22012822  0.51386295    -0.02900
Br439      Br  0.70302984  0.21539891  0.52204881    -0.02600
H440        H  0.76501631  0.25952195  0.55582425     0.09600
H441        H  0.78411239  0.18736319  0.46731663     0.07600
Br442      Br  0.84548578  0.22856168  0.50697479    -0.03000
C443        C  0.56908684  0.13900173  0.95098265    -0.09700
C444        C  0.54788085  0.14416543  0.97474410     0.06500
C445        C  0.55362707  0.14963547  0.01781129    -0.03400
C446        C  0.57872393  0.14767708  0.03637423    -0.07900
C447        C  0.59911246  0.14105698  0.01288998     0.05600
C448        C  0.59459157  0.13769967  0.96935444    -0.02900
Br449      Br  0.62204251  0.13147544  0.93254760    -0.02600
H450        H  0.56549580  0.13530514  0.91774119     0.09600
H451        H  0.58219091  0.15129571  0.06962276     0.07600
Br452      Br  0.52927542  0.16137933  0.05292098    -0.03000
C453        C  0.67514558  0.16176790  0.27023178    -0.09700
C454        C  0.68922986  0.14664104  0.29138467     0.06500
C455        C  0.70267342  0.13181501  0.26769235    -0.03400
C456        C  0.69975080  0.13050437  0.22430399    -0.07900
C457        C  0.68379671  0.14384836  0.20338254     0.05600
C458        C  0.67241666  0.16066769  0.22691780    -0.02900
Br459      Br  0.65229329  0.18236014  0.20283931    -0.02600
H460        H  0.66519405  0.17381427  0.28756985     0.09600
H461        H  0.70926406  0.11807539  0.20693230     0.07600
Br462      Br  0.72425811  0.11169003  0.29193178    -0.03000
C463        C  0.84767513  0.41657922  0.97558472    -0.09700
C464        C  0.85982128  0.40017236  0.99800708     0.06500
C465        C  0.86833332  0.40834711  0.04014365    -0.03400
C466        C  0.86651209  0.43369594  0.05780195    -0.07900
C467        C  0.85577983  0.45103377  0.03474368     0.05600
C468        C  0.84517377  0.44142451  0.99354546    -0.02900
Br469      Br  0.82588549  0.46008026  0.96027077    -0.02600
H470        H  0.84006928  0.41013027  0.94360695     0.09600
H471        H  0.87421828  0.44028548  0.08972747     0.07600
Br472      Br  0.88312177  0.38666302  0.07565818    -0.03000
C473        C  0.87215669  0.30290384  0.74021333    -0.09700
C474        C  0.86325179  0.32245706  0.71881375     0.06500
C475        C  0.85424957  0.34134471  0.74216763    -0.03400
C476        C  0.85490077  0.34070038  0.78547960    -0.07900
C477        C  0.86467003  0.32189267  0.80689875     0.05600
C478        C  0.87299953  0.30246229  0.78371048    -0.02900
Br479      Br  0.88578610  0.27478133  0.80883432    -0.02600
H480        H  0.87897846  0.28811186  0.72301451     0.09600
H481        H  0.84848680  0.35587125  0.80252827     0.07600
Br482      Br  0.84243620  0.37015432  0.71807462    -0.03000
C483        C  0.76059192  0.23023017  0.03873988    -0.09700
C484        C  0.75072115  0.19919463  0.02482829     0.06500
C485        C  0.76880573  0.19497056  0.99361795    -0.03400
C486        C  0.79549682  0.22155919  0.97673514    -0.07900
C487        C  0.80413101  0.25236427  0.98979379     0.05600
C488        C  0.78671320  0.25653881  0.02137578    -0.02900
Br489      Br  0.79781897  0.29792971  0.04206657    -0.02600
H490        H  0.74756021  0.23431115  0.06283419     0.09600
H491        H  0.80872595  0.21826081  0.95215997     0.07600
Br492      Br  0.75786101  0.15421192  0.97094461    -0.03000
C493        C  0.57511624  0.59046433  0.93159437    -0.09700
C494        C  0.59232799  0.62363947  0.92786144     0.06500
C495        C  0.62588732  0.63919221  0.92733348    -0.03400
C496        C  0.64119806  0.62114339  0.92756307    -0.07900
C497        C  0.62364129  0.58773878  0.92889644     0.05600
C498        C  0.59022743  0.57255983  0.93252692    -0.02900
Br499      Br  0.56319585  0.52750870  0.93976351    -0.02600
H500        H  0.54942269  0.57812034  0.93354926     0.09600
H501        H  0.66690405  0.63327530  0.92543809     0.07600
Br502      Br  0.65202891  0.68453336  0.92424153    -0.03000
C503        C  0.61746624  0.97771273  0.06705801    -0.09700
C504        C  0.58408228  0.96205385  0.06808125     0.06500
C505        C  0.56896571  0.98042704  0.06822747    -0.03400
C506        C  0.58715356  0.01353264  0.06852645    -0.07900
C507        C  0.62053699  0.02936008  0.06887174     0.05600
C508        C  0.63574895  0.01104739  0.06784754    -0.02900
Br509      Br  0.68110426  0.02975520  0.07067836    -0.02600
H510        H  0.62942921  0.96398288  0.06719884     0.09600
H511        H  0.57492641  0.02702328  0.06868785     0.07600
Br512      Br  0.52350404  0.96210747  0.06683010    -0.03000
C513        C  0.51088702  0.74205719  0.97713583    -0.09700
C514        C  0.54042838  0.74417651  0.97060309     0.06500
C515        C  0.56828453  0.77150559  0.98453737    -0.03400
C516        C  0.56597500  0.79569761  0.00515234    -0.07900
C517        C  0.53625368  0.79302758  0.01270867     0.05600
C518        C  0.50851475  0.76593140  0.99794295    -0.02900
Br519      Br  0.46656663  0.76025446  0.00314515    -0.02600
H520        H  0.48924004  0.72139595  0.96638873     0.09600
H521        H  0.58752078  0.81651300  0.01584222     0.07600
Br522      Br  0.61005272  0.77781638  0.97514743    -0.03000
C523        C  0.57594659  0.59482283  0.55174419    -0.09700
C524        C  0.59175497  0.62703652  0.56329599     0.06500
C525        C  0.62457945  0.64223901  0.57267997    -0.03400
C526        C  0.64052898  0.62487814  0.57159356    -0.07900
C527        C  0.62432280  0.59242073  0.56145256     0.05600
C528        C  0.59186146  0.57759398  0.55044410    -0.02900
Br529      Br  0.56821732  0.53428876  0.53142666    -0.02600
H530        H  0.55094051  0.58285947  0.54358907     0.09600
H531        H  0.66542641  0.63651727  0.58021159     0.07600
Br532      Br  0.64852124  0.68580523  0.59008913    -0.03000
C533        C  0.50851199  0.66302345  0.72150729    -0.09700
C534        C  0.53715834  0.68311230  0.70117131     0.06500
C535        C  0.56424137  0.70332198  0.72513743    -0.03400
C536        C  0.56290231  0.70092139  0.76848613    -0.07900
C537        C  0.53473110  0.67913393  0.78874319     0.05600
C538        C  0.50689530  0.66103922  0.76467075    -0.02900
Br539      Br  0.46563881  0.63280804  0.78749105    -0.02600
H540        H  0.48719503  0.64791815  0.70369498     0.09600
H541        H  0.58420659  0.71587816  0.78635181     0.07600
Br542      Br  0.60327867  0.73533472  0.70098709    -0.03000
C543        C  0.59405627  0.01919311  0.40843750    -0.09700
C544        C  0.62608112  0.03410243  0.42082955     0.06500
C545        C  0.63891878  0.01501542  0.43345649    -0.03400
C546        C  0.61971738  0.98178128  0.43300645    -0.07900
C547        C  0.58777200  0.96696256  0.41990718     0.05600
C548        C  0.57492348  0.98621905  0.40799780    -0.02900
Br549      Br  0.53117573  0.96977467  0.39229781    -0.02600
H550        H  0.58353123  0.03333912  0.39929906     0.09600
H551        H  0.63003381  0.96746678  0.44215110     0.07600
Br552      Br  0.68264969  0.03248782  0.44938430    -0.05400
C553        C  0.50348258  0.83459704  0.22288427    -0.09700
C554        C  0.53258295  0.84855997  0.20164157     0.06500
C555        C  0.56105375  0.86112597  0.22507698    -0.03400
C556        C  0.55989126  0.86150423  0.26852198    -0.07900
C557        C  0.53087059  0.84982134  0.28950024     0.05600
C558        C  0.50233090  0.83513659  0.26617650    -0.02900
Br559      Br  0.46079306  0.81560821  0.29079096    -0.02600
H560        H  0.48128978  0.82413847  0.20571029     0.09600
H561        H  0.58200751  0.87242073  0.28587711     0.07600
Br562      Br  0.60249107  0.87982310  0.20049658    -0.03000
C563        C  0.57018620  0.77105278  0.49612102    -0.09700
C564        C  0.54210300  0.74707864  0.51420854     0.06500
C565        C  0.51386210  0.74841979  0.51010090    -0.03400
C566        C  0.51423226  0.77353446  0.48901389    -0.07900
C567        C  0.54226709  0.79790083  0.47168267     0.05600
C568        C  0.57054915  0.79655716  0.47519480    -0.02900
Br569      Br  0.60975125  0.82774601  0.45051980    -0.02600
H570        H  0.59192347  0.77010819  0.49859568     0.09600
H571        H  0.49224652  0.77403406  0.48635730     0.07600
Br572      Br  0.47325626  0.71595104  0.53021258    -0.03000
C573        C  0.41305938  0.43030098  0.07211479    -0.09700
C574        C  0.37969875  0.41342605  0.07356226     0.06500
C575        C  0.36366465  0.37994963  0.07101844    -0.03400
C576        C  0.38115852  0.36424748  0.06764269    -0.07900
C577        C  0.41458478  0.38120859  0.06687379     0.05600
C578        C  0.43051561  0.41476428  0.06857078    -0.02900
Br579      Br  0.47592207  0.44151883  0.06479622    -0.02600
H580        H  0.42586129  0.45601282  0.07333157     0.09600
H581        H  0.36850386  0.33854427  0.06661150     0.07600
Br582      Br  0.31827100  0.35405838  0.07420276    -0.03000
C583        C  0.40488450  0.55110309  0.98204994    -0.09700
C584        C  0.40792853  0.54783759  0.02481979     0.06500
C585        C  0.43650109  0.56964186  0.04508306    -0.03400
C586        C  0.46110815  0.59397471  0.02240346    -0.07900
C587        C  0.45833205  0.59690111  0.97939157     0.05600
C588        C  0.42961836  0.57505995  0.95920608    -0.02900
Br589      Br  0.42219243  0.57518232  0.90053539    -0.02600
H590        H  0.38321662  0.53448968  0.96596603     0.09600
H591        H  0.48297638  0.61015731  0.03846712     0.07600
Br592      Br  0.44495106  0.56617767  0.10259479    -0.03000
C593        C  0.98891330  0.36684897  0.94622959    -0.09700
C594        C  0.97158238  0.38267616  0.95055598     0.06500
C595        C  0.98809535  0.41580142  0.95719908    -0.03400
C596        C  0.02124013  0.43256224  0.95725536    -0.07900
C597        C  0.03873221  0.41711640  0.95066354     0.05600
C598        C  0.02224650  0.38373436  0.94589992    -0.02900
Br599      Br  0.04331371  0.35998253  0.93519181    -0.02600
H600        H  0.97648857  0.34141453  0.94106596     0.09600
H601        H  0.03340718  0.45804934  0.96173335     0.07600
Br602      Br  0.96701489  0.43970690  0.96718796    -0.03000
C603        C  0.20681982  0.46133156  0.03111487    -0.09700
C604        C  0.20583734  0.46226847  0.98763970     0.06500
C605        C  0.22945702  0.46037157  0.96447380    -0.03400
C606        C  0.25392153  0.45852689  0.98508829    -0.07900
C607        C  0.25570570  0.45915866  0.02861702     0.05600
C608        C  0.23154528  0.46005994  0.05167440    -0.02900
Br609      Br  0.23044156  0.45870416  0.11124066    -0.02600
H610        H  0.18866672  0.46241486  0.04931736     0.09600
H611        H  0.27223148  0.45767182  0.96698104     0.07600
Br612      Br  0.22922983  0.45940258  0.90482280    -0.03000
C613        C  0.37300833  0.38373558  0.44141169    -0.09700
C614        C  0.38521894  0.41344422  0.42205867     0.06500
C615        C  0.41461315  0.42613072  0.40108754    -0.03400
C616        C  0.43069259  0.40904902  0.39966300    -0.07900
C617        C  0.41850542  0.37927703  0.41882703     0.05600
C618        C  0.38932179  0.36673641  0.44023534    -0.02900
Br619      Br  0.37013594  0.32678697  0.46873566    -0.02600
H620        H  0.35066882  0.37367436  0.45784519     0.09600
H621        H  0.45301655  0.41927504  0.38315083     0.07600
Br622      Br  0.43426536  0.46608784  0.37227339    -0.03000
C623        C  0.40612141  0.54530625  0.52542188    -0.09700
C624        C  0.40092885  0.54599687  0.48260882     0.06500
C625        C  0.42109658  0.57394363  0.46025633    -0.03400
C626        C  0.44680734  0.59939106  0.48040475    -0.07900
C627        C  0.45292953  0.59798371  0.52275668     0.05600
C628        C  0.43160247  0.57082931  0.54564684    -0.02900
Br629      Br  0.43631107  0.56558351  0.60394672    -0.02600
H630        H  0.39071397  0.52432503  0.54330190     0.09600
H631        H  0.46254524  0.62020681  0.46249001     0.07600
Br632      Br  0.41639114  0.57896505  0.40196888    -0.03000
C633        C  0.33070006  0.48849789  0.27876527    -0.09700
C634        C  0.31955885  0.45911903  0.29858554     0.06500
C635        C  0.30809155  0.43146869  0.27377772    -0.03400
C636        C  0.30947689  0.43405101  0.23040016    -0.07900
C637        C  0.32221263  0.46372111  0.21072671     0.05600
C638        C  0.33221426  0.49111959  0.23558476    -0.02900
Br639      Br  0.34889501  0.53323392  0.21367220    -0.02600
H640        H  0.33920312  0.50999426  0.29704434     0.09600
H641        H  0.30145435  0.41269338  0.21199329     0.07600
Br642      Br  0.29183774  0.38963162  0.29626950    -0.03000
C643        C  0.02219266  0.42129218  0.57309456    -0.09700
C644        C  0.03789341  0.40390096  0.57855098     0.06500
C645        C  0.01933675  0.37046024  0.58181412    -0.03400
C646        C  0.98596127  0.35558406  0.58146930    -0.07900
C647        C  0.97044521  0.37336531  0.57824571     0.05600
C648        C  0.98909055  0.40658734  0.57287054    -0.02900
Br649      Br  0.97147301  0.43384868  0.56433073    -0.02600
H650        H  0.03577836  0.44684456  0.56953923     0.09600
H651        H  0.97211284  0.33008013  0.58524581     0.07600
Br652      Br  0.03760079  0.34372398  0.58894050    -0.03000
C653        C  0.11894605  0.43382972  0.74175294    -0.09700
C654        C  0.14486047  0.45768493  0.71993243     0.06500
C655        C  0.16995717  0.48258952  0.74247752    -0.03400
C656        C  0.16778512  0.48420510  0.78556748    -0.07900
C657        C  0.14114347  0.46122641  0.80718908     0.05600
C658        C  0.11677586  0.43538780  0.78489403    -0.02900
Br659      Br  0.07860809  0.40277501  0.81030428    -0.02600
H660        H  0.09946387  0.41456781  0.72500329     0.09600
H661        H  0.18705203  0.50375159  0.80225539     0.07600
Br662      Br  0.20824138  0.51476432  0.71691503    -0.03000
C663        C  0.20058605  0.43623147  0.49247448    -0.09700
C664        C  0.20324074  0.44098805  0.53566779     0.06500
C665        C  0.23065852  0.44455795  0.55617510    -0.03400
C666        C  0.25523646  0.44493412  0.53307298    -0.07900
C667        C  0.25336376  0.44236146  0.48962250     0.05600
C668        C  0.22537793  0.43718686  0.46943109    -0.02900
Br669      Br  0.21958312  0.43110067  0.41046449    -0.02600
H670        H  0.17965318  0.43312046  0.47614720     0.09600
H671        H  0.27652913  0.44865833  0.54901949     0.07600
Br672      Br  0.23630370  0.44923519  0.61538339    -0.03000
C673        C  0.01152848  0.60682677  0.04581797    -0.09700
C674        C  0.02719296  0.63248313  0.07355817     0.06500
C675        C  0.00876279  0.64085101  0.09880058    -0.03400
C676        C  0.97543505  0.62255916  0.09736368    -0.07900
C677        C  0.96005482  0.59569908  0.07153725     0.05600
C678        C  0.97838263  0.58854018  0.04460537    -0.02900
Br679      Br  0.95939701  0.55420686  0.00520860    -0.02600
H680        H  0.02518135  0.60041798  0.02554321     0.09600
H681        H  0.96158224  0.62823442  0.11827010     0.07600
Br682      Br  0.02736400  0.67463555  0.13888876    -0.03000
C683        C  0.16109026  0.56940653  0.01968690    -0.09700
C684        C  0.14609894  0.55831120  0.98100721     0.06500
C685        C  0.13135168  0.57379399  0.96195270    -0.03400
C686        C  0.13074033  0.59882168  0.98247830    -0.07900
C687        C  0.14453654  0.60908563  0.02200376     0.05600
C688        C  0.16071125  0.59464084  0.04010271    -0.02900
Br689      Br  0.18289306  0.60778291  0.09231684    -0.02600
H690        H  0.17290062  0.55809529  0.03447252     0.09600
H691        H  0.11829359  0.60954095  0.96789517     0.07600
Br692      Br  0.10914828  0.56059554  0.90974267    -0.03000
C693        C  0.40762481  0.98211144  0.92432037    -0.09700
C694        C  0.37432421  0.96697932  0.92259287     0.06500
C695        C  0.35971769  0.98575932  0.92034963    -0.03400
C696        C  0.37856877  0.01897626  0.91983854    -0.07900
C697        C  0.41195798  0.03404475  0.92098088     0.05600
C698        C  0.42644090  0.01510364  0.92346602    -0.02900
Br699      Br  0.47166411  0.03206942  0.92683984    -0.02600
H700        H  0.41929687  0.96813509  0.92641062     0.09600
H701        H  0.36703605  0.03305801  0.91754130     0.07600
Br702      Br  0.31454404  0.96774793  0.91508687    -0.03000
C703        C  0.41487022  0.84840292  0.95985932    -0.09700
C704        C  0.39718882  0.85866249  0.98309112     0.06500
C705        C  0.40611786  0.86809481  0.02487819    -0.03400
C706        C  0.43215685  0.86726561  0.04205660    -0.07900
C707        C  0.45019841  0.85777073  0.01848850     0.05600
C708        C  0.44120178  0.84802763  0.97700598    -0.02900
Br709      Br  0.46303002  0.83286149  0.94259469    -0.02600
H710        H  0.40848461  0.84098320  0.92781587     0.09600
H711        H  0.43882715  0.87488329  0.07399104     0.07600
Br712      Br  0.38455226  0.88276857  0.06073775    -0.03000
C713        C  0.19256533  0.75563912  0.98364564    -0.09700
C714        C  0.19297080  0.75567975  0.02725557     0.06500
C715        C  0.21853284  0.78126696  0.04829223    -0.03400
C716        C  0.24345335  0.80544724  0.02564986    -0.07900
C717        C  0.24403533  0.80423945  0.98211122     0.05600
C718        C  0.21792405  0.77927384  0.96105268    -0.02900
Br719      Br  0.21544912  0.77595087  0.90156073    -0.02600
H720        H  0.17311308  0.73624899  0.96693200     0.09600
H721        H  0.26323492  0.82453496  0.04230961     0.07600
Br722      Br  0.22099268  0.78451011  0.10775493    -0.03000
C723        C  0.02164397  0.62358187  0.45476531    -0.09700
C724        C  0.03656713  0.60997521  0.43213041     0.06500
C725        C  0.01735370  0.58138511  0.41013179    -0.03400
C726        C  0.98434182  0.56743936  0.41100820    -0.07900
C727        C  0.96930291  0.58099139  0.43344136     0.05600
C728        C  0.98842679  0.60942599  0.45576838    -0.02900
Br729      Br  0.97136100  0.63055902  0.48807532    -0.02600
H730        H  0.03589048  0.64541857  0.47192130     0.09600
H731        H  0.97031606  0.54563236  0.39367216     0.07600
Br732      Br  0.03375278  0.55995885  0.37688718    -0.03000
C733        C  0.16111549  0.54639721  0.49455556    -0.09700
C734        C  0.15213232  0.54112382  0.53648944     0.06500
C735        C  0.14438902  0.56220800  0.55659310    -0.03400
C736        C  0.14422603  0.58670266  0.53412429    -0.07900
C737        C  0.15166292  0.59103569  0.49163978     0.05600
C738        C  0.16105529  0.57099303  0.47209658    -0.02900
Br739      Br  0.17259735  0.57436983  0.41457600    -0.02600
H740        H  0.16743995  0.53070041  0.47866364     0.09600
H741        H  0.13726272  0.60193363  0.54991680     0.07600
Br742      Br  0.13150399  0.55804746  0.61367367    -0.03000
C743        C  0.13725414  0.64319201  0.27549866    -0.09700
C744        C  0.13841827  0.66758660  0.30015544     0.06500
C745        C  0.13794632  0.69324838  0.28034468    -0.03400
C746        C  0.13590151  0.69377901  0.23696782    -0.07900
C747        C  0.13417559  0.66909696  0.21228213     0.05600
C748        C  0.13494274  0.64353215  0.23218846    -0.02900
Br749      Br  0.13141131  0.60732045  0.20311536    -0.02600
H750        H  0.13727800  0.62314279  0.29006870     0.09600
H751        H  0.13563281  0.71372770  0.22247856     0.07600
Br752      Br  0.14094326  0.72885582  0.31021683    -0.03000
C753        C  0.40968982  0.98205244  0.56361261    -0.09700
C754        C  0.37641556  0.96616200  0.56716403     0.06500
C755        C  0.36109277  0.98437918  0.56796233    -0.03400
C756        C  0.37928270  0.01773866  0.56699969    -0.07900
C757        C  0.41264857  0.03341614  0.56518412     0.05600
C758        C  0.42771334  0.01511284  0.56219228    -0.02900
Br759      Br  0.47274304  0.03358334  0.55380925    -0.02600
H760        H  0.42196618  0.96864901  0.56175016     0.09600
H761        H  0.36736501  0.03146152  0.56896804     0.07600
Br762      Br  0.31583766  0.96550790  0.57251712    -0.03000
C763        C  0.45716483  0.86520508  0.52340057    -0.09700
C764        C  0.45403928  0.85799488  0.48072532     0.06500
C765        C  0.42454007  0.84873423  0.46108097    -0.03400
C766        C  0.39997021  0.84870231  0.48347987    -0.07900
C767        C  0.40343748  0.85696759  0.52571824     0.05600
C768        C  0.43223507  0.86449465  0.54604133    -0.02900
Br769      Br  0.43994155  0.87517956  0.60400332    -0.02600
H770        H  0.47932351  0.87186604  0.53930263     0.09600
H771        H  0.37790003  0.84229705  0.46744683     0.07600
Br772      Br  0.41542602  0.83592368  0.40385969    -0.03000
C773        C  0.32017655  0.83711357  0.72864175    -0.09700
C774        C  0.31616042  0.85992093  0.70694739     0.06500
C775        C  0.30992266  0.88104511  0.72982734    -0.03400
C776        C  0.30911007  0.87971223  0.77328965    -0.07900
C777        C  0.31458692  0.85782661  0.79495315     0.05600
C778        C  0.31933898  0.83578654  0.77202121    -0.02900
Br779      Br  0.32431761  0.80282402  0.79748844    -0.02600
H780        H  0.32441201  0.82031600  0.71176418     0.09600
H781        H  0.30541715  0.89682260  0.79027895     0.07600
Br782      Br  0.30453101  0.91382711  0.70455189    -0.03000
C783        C  0.22946510  0.76183911  0.45995618    -0.09700
C784        C  0.20286176  0.74026927  0.48305496     0.06500
C785        C  0.20144002  0.74680359  0.52554895    -0.03400
C786        C  0.22656414  0.77394740  0.54402004    -0.07900
C787        C  0.25311458  0.79538636  0.52091113     0.05600
C788        C  0.25431401  0.78924780  0.47833520    -0.02900
Br789      Br  0.29049729  0.81582860  0.44459042    -0.02600
H790        H  0.23117240  0.75717129  0.42744721     0.09600
H791        H  0.22553176  0.77814960  0.57688091     0.07600
Br792      Br  0.16720765  0.71869253  0.56108095    -0.03000
loop_ 
_geom_bond_atom_site_label_1 
_geom_bond_atom_site_label_2 
_geom_bond_distance 
_geom_bond_site_symmetry_2 
_ccdc_geom_bond_type 
In1           O3   2.248       .  S
In1           O4   2.237       .  S
In1          O12   2.249       .  S
In1           O6   2.264       .  S
In1           O8   2.277       .  S
In1           O9   2.254       .  S
In1          O10   2.224       .  S
In1          O13   2.233       .  S
C2            O8   1.264       .  A
C2           O10   1.258       .  A
C2          C754   1.487       .  S
O3           C11   1.262       .  A
O4           C11   1.263       .  A
C5           O12   1.259       .  A
C5            O6   1.262       .  A
C5          C787   1.481       .  S
C7            O9   1.261       .  A
C7           O13   1.260       .  A
C7          C767   1.483       .  S
C11         C774   1.485       .  S
In14         O16   2.244       .  S
In14         O17   2.246       .  S
In14         O25   2.254       .  S
In14         O19   2.255       .  S
In14         O21   2.257       .  S
In14         O22   2.251       .  S
In14         O23   2.230       .  S
In14         O26   2.239       .  S
C15          O21   1.264       .  A
C15          O23   1.258       .  A
C15         C724   1.484       .  S
O16          C24   1.261       .  A
O17          C24   1.263       .  A
C18          O25   1.261       .  A
C18          O19   1.260       .  A
C18         C784   1.486       .  S
C20          O22   1.260       .  A
C20          O26   1.260       .  A
C20         C737   1.486       .  S
C24         C744   1.485       .  S
In27         O29   2.237       .  S
In27         O30   2.253       .  S
In27         O38   2.247       .  S
In27         O32   2.263       .  S
In27         O34   2.261       .  S
In27         O35   2.233       .  S
In27         O36   2.217       .  S
In27         O39   2.250       .  S
C28          O34   1.264       .  A
C28          O36   1.259       .  A
C28         C694   1.480       .  S
O29          C37   1.258       .  A
O30          C37   1.261       .  A
C31          O38   1.258       .  A
C31          O32   1.260       .  A
C31         C717   1.481       .  S
C33          O35   1.261       .  A
C33          O39   1.264       .  A
C33         C777   1.484       .  S
C37         C704   1.485       .  S
In40         O42   2.239       .  S
In40         O43   2.246       .  S
In40         O51   2.257       .  S
In40         O45   2.261       .  S
In40         O47   2.279       .  S
In40         O48   2.234       .  S
In40         O49   2.237       .  S
In40         O52   2.261       .  S
C41          O47   1.261       .  A
C41          O49   1.256       .  A
C41         C674   1.483       .  S
O42          C50   1.262       .  A
O43          C50   1.260       .  A
C44          O51   1.257       .  A
C44          O45   1.258       .  A
C44         C714   1.482       .  S
C46          O48   1.258       .  A
C46          O52   1.264       .  A
C46         C747   1.488       .  S
C50         C687   1.484       .  S
In53         O55   2.246       .  S
In53         O56   2.237       .  S
In53         O64   2.243       .  S
In53         O58   2.254       .  S
In53         O60   2.276       .  S
In53         O61   2.243       .  S
In53         O62   2.229       .  S
In53         O65   2.248       .  S
C54          O60   1.262       .  A
C54          O62   1.258       .  A
C54         C644   1.489       .  S
O55          C63   1.262       .  A
O56          C63   1.260       .  A
C57          O64   1.258       .  A
C57          O58   1.261       .  A
C57         C664   1.482       .  S
C59          O61   1.259       .  A
C59          O65   1.261       .  A
C59         C734   1.483       .  S
C63         C654   1.479       .  S
In66         O68   2.260       .  S
In66         O69   2.223       .  S
In66         O77   2.240       .  S
In66         O71   2.262       .  S
In66         O73   2.269       .  S
In66         O74   2.247       .  S
In66         O75   2.227       .  S
In66         O78   2.238       .  S
C67          O73   1.264       .  A
C67          O75   1.256       .  A
C67         C614   1.486       .  S
O68          C76   1.263       .  A
O69          C76   1.262       .  A
C70          O77   1.258       .  A
C70          O71   1.260       .  A
C70         C667   1.477       .  S
C72          O74   1.259       .  A
C72          O78   1.261       .  A
C72         C624   1.483       .  S
C76         C634   1.486       .  S
In79         O81   2.245       .  S
In79         O82   2.244       .  S
In79         O90   2.241       .  S
In79         O84   2.247       .  S
In79         O86   2.222       .  S
In79         O87   2.239       .  S
In79         O88   2.258       .  S
In79         O91   2.241       .  S
C80          O86   1.259       .  A
C80          O88   1.262       .  A
C80         C597   1.479       .  S
O81          C89   1.260       .  A
O82          C89   1.261       .  A
C83          O90   1.259       .  A
C83          O84   1.261       .  A
C83         C604   1.476       .  S
C85          O87   1.262       .  A
C85          O91   1.259       .  A
C85         C657   1.479       .  S
C89         C684   1.480       .  S
In92         O94   2.236       .  S
In92         O95   2.246       .  S
In92        O103   2.235       .  S
In92         O97   2.260       .  S
In92         O99   2.264       .  S
In92        O100   2.226       .  S
In92        O101   2.219       .  S
In92        O104   2.248       .  S
C93          O99   1.264       .  A
C93         O101   1.258       .  A
C93         C574   1.482       .  S
O94         C102   1.260       .  A
O95         C102   1.260       .  A
C96         O103   1.258       .  A
C96          O97   1.262       .  A
C96         C607   1.476       .  S
C98         O100   1.260       .  A
C98         O104   1.264       .  A
C98         C637   1.484       .  S
C102        C584   1.479       .  S
In105       O107   2.258       .  S
In105       O108   2.230       .  S
In105       O116   2.214       .  S
In105       O110   2.262       .  S
In105       O112   2.268       .  S
In105       O113   2.232       .  S
In105       O114   2.226       .  S
In105       O117   2.257       .  S
C106        O112   1.263       .  A
C106        O114   1.257       .  A
C106        C547   1.484       .  S
O107        C115   1.262       .  A
O108        C115   1.258       .  A
C109        O116   1.259       .  A
C109        O110   1.263       .  A
C109        C567   1.476       .  S
C111        O113   1.258       .  A
C111        O117   1.263       .  A
C111        C764   1.486       .  S
C115        C557   1.482       .  S
In118       O120   2.257       .  S
In118       O121   2.220       .  S
In118       O129   2.215       .  S
In118       O123   2.271       .  S
In118       O125   2.266       .  S
In118       O126   2.225       .  S
In118       O127   2.230       .  S
In118       O130   2.247       .  S
C119        O125   1.263       .  A
C119        O127   1.258       .  A
C119        C524   1.482       .  S
O120        C128   1.261       .  A
O121        C128   1.258       .  A
C122        O129   1.256       .  A
C122        O123   1.262       .  A
C122        C564   1.476       .  S
C124        O126   1.259       .  A
C124        O130   1.264       .  A
C124        C627   1.481       .  S
C128        C534   1.478       .  S
In131       O133   2.249       .  S
In131       O134   2.234       .  S
In131       O142   2.228       .  S
In131       O136   2.262       .  S
In131       O138   2.276       .  S
In131       O139   2.233       .  S
In131       O140   2.224       .  S
In131       O143   2.258       .  S
C132        O138   1.263       .  A
C132        O140   1.256       .  A
C132        C504   1.482       .  S
O133        C141   1.262       .  A
O134        C141   1.261       .  A
C135        O142   1.258       .  A
C135        O136   1.263       .  A
C135        C517   1.479       .  S
C137        O139   1.258       .  A
C137        O143   1.260       .  A
C137        C554   1.485       .  S
C141        C707   1.478       .  S
In144       O146   2.247       .  S
In144       O147   2.226       .  S
In144       O155   2.221       .  S
In144       O149   2.258       .  S
In144       O151   2.278       .  S
In144       O152   2.224       .  S
In144       O153   2.217       .  S
In144       O156   2.258       .  S
C145        O151   1.262       .  A
C145        O153   1.258       .  A
C145        C494   1.483       .  S
O146        C154   1.264       .  A
O147        C154   1.259       .  A
C148        O155   1.258       .  A
C148        O149   1.262       .  A
C148        C514   1.479       .  S
C150        O152   1.255       .  A
C150        O156   1.262       .  A
C150        C537   1.481       .  S
C154        C587   1.483       .  S
In157       O159   2.258       .  S
In157       O160   2.232       .  S
In157       O168   2.226       .  S
In157       O162   2.270       .  S
In157       O164   2.224       .  S
In157       O165   2.236       .  S
In157       O166   2.262       .  S
In157       O169   2.241       .  S
C158        O164   1.258       .  A
C158        O166   1.263       .  A
C158        C594   1.475       .  S
O159        C167   1.259       .  A
O160        C167   1.258       .  A
C161        O168   1.257       .  A
C161        O162   1.261       .  A
C161        C487   1.470       .  S
C163        O165   1.262       .  A
C163        O169   1.262       .  A
C163        C464   1.484       .  S
C167        C477   1.484       .  S
In170       O172   2.264       .  S
In170       O173   2.236       .  S
In170       O181   2.227       .  S
In170       O175   2.277       .  S
In170       O177   2.271       .  S
In170       O178   2.246       .  S
In170       O179   2.232       .  S
In170       O182   2.252       .  S
C171        O177   1.263       .  A
C171        O179   1.259       .  A
C171        C507   1.487       .  S
O172        C180   1.263       .  A
O173        C180   1.258       .  A
C174        O181   1.259       .  A
C174        O175   1.262       .  A
C174        C484   1.489       .  S
C176        O178   1.261       .  A
C176        O182   1.261       .  A
C176        C447   1.490       .  S
C180        C457   1.489       .  S
In183       O185   2.258       .  S
In183       O186   2.230       .  S
In183       O194   2.243       .  S
In183       O188   2.264       .  S
In183       O190   2.277       .  S
In183       O191   2.235       .  S
In183       O192   2.228       .  S
In183       O195   2.263       .  S
C184        O190   1.264       .  A
C184        O192   1.257       .  A
C184        C647   1.486       .  S
O185        C193   1.263       .  A
O186        C193   1.258       .  A
C187        O194   1.259       .  A
C187        O188   1.260       .  A
C187        C434   1.488       .  S
C189        O191   1.257       .  A
C189        O195   1.262       .  A
C189        C474   1.486       .  S
C193        C424   1.485       .  S
In196       O198   2.242       .  S
In196       O199   2.242       .  S
In196       O207   2.229       .  S
In196       O201   2.277       .  S
In196       O203   2.271       .  S
In196       O204   2.245       .  S
In196       O205   2.219       .  S
In196       O208   2.254       .  S
C197        O203   1.264       .  A
C197        O205   1.259       .  A
C197        C544   1.484       .  S
O198        C206   1.261       .  A
O199        C206   1.263       .  A
C200        O207   1.257       .  A
C200        O201   1.263       .  A
C200        C437   1.482       .  S
C202        O204   1.260       .  A
C202        O208   1.260       .  A
C202        C454   1.489       .  S
C206        C417   1.484       .  S
In209       O211   2.246       .  S
In209       O212   2.236       .  S
In209       O220   2.242       .  S
In209       O214   2.254       .  S
In209       O216   2.264       .  S
In209       O217   2.251       .  S
In209       O218   2.225       .  S
In209       O221   2.257       .  S
C210        O216   1.262       .  A
C210        O218   1.256       .  A
C210        C697   1.481       .  S
O211        C219   1.260       .  A
O212        C219   1.262       .  A
C213        O220   1.259       .  A
C213        O214   1.261       .  A
C213        C404   1.477       .  S
C215        O217   1.261       .  A
C215        O221   1.260       .  A
C215        C444   1.487       .  S
C219        C394   1.485       .  S
In222       O224   2.252       .  S
In222       O225   2.224       .  S
In222       O233   2.240       .  S
In222       O227   2.267       .  S
In222       O229   2.264       .  S
In222       O230   2.250       .  S
In222       O231   2.224       .  S
In222       O234   2.241       .  S
C223        O229   1.264       .  A
C223        O231   1.257       .  A
C223        C577   1.483       .  S
O224        C232   1.262       .  A
O225        C232   1.262       .  A
C226        O233   1.257       .  A
C226        O227   1.262       .  A
C226        C407   1.480       .  S
C228        O230   1.260       .  A
C228        O234   1.261       .  A
C228        C374   1.486       .  S
C232        C384   1.482       .  S
In235       O237   2.246       .  S
In235       O238   2.241       .  S
In235       O246   2.233       .  S
In235       O240   2.274       .  S
In235       O242   2.278       .  S
In235       O243   2.229       .  S
In235       O244   2.221       .  S
In235       O247   2.266       .  S
C236        O242   1.264       .  A
C236        O244   1.257       .  A
C236        C757   1.481       .  S
O237        C245   1.262       .  A
O238        C245   1.261       .  A
C239        O246   1.257       .  A
C239        O240   1.263       .  A
C239        C364   1.482       .  S
C241        O243   1.256       .  A
C241        O247   1.262       .  A
C241        C397   1.485       .  S
C245        C414   1.482       .  S
In248       O250   2.233       .  S
In248       O251   2.243       .  S
In248       O259   2.237       .  S
In248       O253   2.267       .  S
In248       O255   2.257       .  S
In248       O256   2.236       .  S
In248       O257   2.234       .  S
In248       O260   2.249       .  S
C249        O255   1.263       .  A
C249        O257   1.260       .  A
C249        C617   1.488       .  S
O250        C258   1.260       .  A
O251        C258   1.262       .  A
C252        O259   1.260       .  A
C252        O253   1.261       .  A
C252        C367   1.490       .  S
C254        O256   1.259       .  A
C254        O260   1.261       .  A
C254        C387   1.479       .  S
C258        C357   1.480       .  S
In261       O263   2.236       .  S
In261       O264   2.240       .  S
In261       O272   2.253       .  S
In261       O266   2.240       .  S
In261       O268   2.272       .  S
In261       O269   2.252       .  S
In261       O270   2.215       .  S
In261       O273   2.242       .  S
C262        O268   1.264       .  A
C262        O270   1.257       .  A
C262        C497   1.483       .  S
O263        C271   1.261       .  A
O264        C271   1.263       .  A
C265        O272   1.259       .  A
C265        O266   1.259       .  A
C265        C344   1.474       .  S
C267        O269   1.261       .  A
C267        O273   1.259       .  A
C267        C377   1.481       .  S
C271        C334   1.474       .  S
In274       O276   2.248       .  S
In274       O277   2.254       .  S
In274       O285   2.249       .  S
In274       O279   2.249       .  S
In274       O281   2.267       .  S
In274       O282   2.250       .  S
In274       O283   2.237       .  S
In274       O286   2.238       .  S
C275        O281   1.262       .  A
C275        O283   1.258       .  A
C275        C677   1.477       .  S
O276        C284   1.260       .  A
O277        C284   1.260       .  A
C278        O285   1.258       .  A
C278        O279   1.260       .  A
C278        C347   1.481       .  S
C280        O282   1.263       .  A
C280        O286   1.260       .  A
C280        C467   1.483       .  S
C284        C324   1.483       .  S
In287       O289   2.246       .  S
In287       O290   2.223       .  S
In287       O298   2.221       .  S
In287       O292   2.268       .  S
In287       O294   2.264       .  S
In287       O295   2.232       .  S
In287       O296   2.223       .  S
In287       O299   2.246       .  S
C288        O294   1.265       .  A
C288        O296   1.259       .  A
C288        C527   1.478       .  S
O289        C297   1.262       .  A
O290        C297   1.262       .  A
C291        O298   1.258       .  A
C291        O292   1.263       .  A
C291        C314   1.487       .  S
C293        O295   1.259       .  A
C293        O299   1.260       .  A
C293        C337   1.469       .  S
C297        C354   1.482       .  S
In300       O302   2.237       .  S
In300       O303   2.240       .  S
In300       O311   2.229       .  S
In300       O305   2.269       .  S
In300       O307   2.269       .  S
In300       O308   2.249       .  S
In300       O309   2.217       .  S
In300       O312   2.246       .  S
C301        O307   1.263       .  A
C301        O309   1.259       .  A
C301        C727   1.486       .  S
O302        C310   1.263       .  A
O303        C310   1.261       .  A
C304        O311   1.258       .  A
C304        O305   1.262       .  A
C304        C317   1.477       .  S
C306        O308   1.260       .  A
C306        O312   1.260       .  A
C306        C327   1.479       .  S
C310        C427   1.480       .  S
C313        C314   1.407       .  A
C313        C318   1.395       .  A
C313        H320   1.083       .  S
C314        C315   1.415       .  A
C315        C316   1.405       .  A
C315       Br322   1.919       .  S
C316        C317   1.404       .  A
C316        H321   1.083       .  S
C317        C318   1.408       .  A
C318       Br319   1.923       .  S
C323        C324   1.405       .  A
C323        C328   1.398       .  A
C323        H330   1.083       .  S
C324        C325   1.413       .  A
C325        C326   1.401       .  A
C325       Br332   1.920       .  S
C326        C327   1.404       .  A
C326        H331   1.084       .  S
C327        C328   1.412       .  A
C328       Br329   1.922       .  S
C333        C334   1.404       .  A
C333        C338   1.398       .  A
C333        H340   1.084       .  S
C334        C335   1.412       .  A
C335        C336   1.397       .  A
C335       Br342   1.921       .  S
C336        C337   1.401       .  A
C336        H341   1.084       .  S
C337        C338   1.408       .  A
C338       Br339   1.920       .  S
C343        C344   1.403   1_554  A
C343        C348   1.398       .  A
C343        H350   1.084       .  S
C344        C345   1.408       .  A
C345        C346   1.400       .  A
C345       Br352   1.919       .  S
C346        C347   1.407   1_556  A
C346        H351   1.084       .  S
C347        C348   1.413       .  A
C348       Br349   1.921       .  S
C353        C354   1.405       .  A
C353        C358   1.395       .  A
C353        H360   1.084       .  S
C354        C355   1.414       .  A
C355        C356   1.400       .  A
C355       Br362   1.922       .  S
C356        C357   1.406       .  A
C356        H361   1.083       .  S
C357        C358   1.411       .  A
C358       Br359   1.921       .  S
C363        C364   1.404       .  A
C363        C368   1.406       .  A
C363        H370   1.083       .  S
C364        C365   1.411       .  A
C365        C366   1.396       .  A
C365       Br372   1.923       .  S
C366        C367   1.406       .  A
C366        H371   1.083       .  S
C367        C368   1.417       .  A
C368       Br369   1.920       .  S
C373        C374   1.406   1_556  A
C373        C378   1.398       .  A
C373        H380   1.083       .  S
C374        C375   1.416       .  A
C375        C376   1.401       .  A
C375       Br382   1.922       .  S
C376        C377   1.405   1_554  A
C376        H381   1.083       .  S
C377        C378   1.411       .  A
C378       Br379   1.920       .  S
C383        C384   1.405       .  A
C383        C388   1.396       .  A
C383        H390   1.083       .  S
C384        C385   1.414       .  A
C385        C386   1.400       .  A
C385       Br392   1.921       .  S
C386        C387   1.405       .  A
C386        H391   1.083       .  S
C387        C388   1.411       .  A
C388       Br389   1.921       .  S
C393        C394   1.404       .  A
C393        C398   1.396       .  A
C393        H400   1.083       .  S
C394        C395   1.415       .  A
C395        C396   1.402       .  A
C395       Br402   1.922       .  S
C396        C397   1.406       .  A
C396        H401   1.083       .  S
C397        C398   1.415       .  A
C398       Br399   1.923       .  S
C403        C404   1.402   1_554  A
C403        C408   1.399       .  A
C403        H410   1.084       .  S
C404        C405   1.411       .  A
C405        C406   1.401       .  A
C405       Br412   1.921       .  S
C406        C407   1.404   1_556  A
C406        H411   1.084       .  S
C407        C408   1.412       .  A
C408       Br409   1.920       .  S
C413        C414   1.405       .  A
C413        C418   1.400       .  A
C413        H420   1.084       .  S
C414        C415   1.411       .  A
C415        C416   1.399       .  A
C415       Br422   1.920       .  S
C416        C417   1.405       .  A
C416        H421   1.084       .  S
C417        C418   1.414       .  A
C418       Br419   1.922       .  S
C423        C424   1.406       .  A
C423        C428   1.401       .  A
C423        H430   1.083       .  S
C424        C425   1.416       .  A
C425        C426   1.397       .  A
C425       Br432   1.922       .  S
C426        C427   1.402       .  A
C426        H431   1.084       .  S
C427        C428   1.413       .  A
C428       Br429   1.922       .  S
C433        C434   1.405       .  A
C433        C438   1.396       .  A
C433        H440   1.083       .  S
C434        C435   1.415       .  A
C435        C436   1.406       .  A
C435       Br442   1.919       .  S
C436        C437   1.404       .  A
C436        H441   1.083       .  S
C437        C438   1.411       .  A
C438       Br439   1.923       .  S
C443        C444   1.405       .  A
C443        C448   1.401       .  A
C443        H450   1.084       .  S
C444        C445   1.412   1_556  A
C445        C446   1.401       .  A
C445       Br452   1.921       .  S
C446        C447   1.408       .  A
C446        H451   1.084       .  S
C447        C448   1.415   1_554  A
C448       Br449   1.921       .  S
C453        C454   1.405       .  A
C453        C458   1.399       .  A
C453        H460   1.083       .  S
C454        C455   1.415       .  A
C455        C456   1.402       .  A
C455       Br462   1.921       .  S
C456        C457   1.406       .  A
C456        H461   1.083       .  S
C457        C458   1.415       .  A
C458       Br459   1.923       .  S
C463        C464   1.406       .  A
C463        C468   1.398       .  A
C463        H470   1.084       .  S
C464        C465   1.414   1_556  A
C465        C466   1.400       .  A
C465       Br472   1.921       .  S
C466        C467   1.405       .  A
C466        H471   1.084       .  S
C467        C468   1.413   1_554  A
C468       Br469   1.922       .  S
C473        C474   1.406       .  A
C473        C478   1.402       .  A
C473        H480   1.083       .  S
C474        C475   1.415       .  A
C475        C476   1.396       .  A
C475       Br482   1.923       .  S
C476        C477   1.404       .  A
C476        H481   1.083       .  S
C477        C478   1.413       .  A
C478       Br479   1.921       .  S
C483        C484   1.407       .  A
C483        C488   1.394       .  A
C483        H490   1.082       .  S
C484        C485   1.418   1_554  A
C485        C486   1.406       .  A
C485       Br492   1.919       .  S
C486        C487   1.402       .  A
C486        H491   1.083       .  S
C487        C488   1.404   1_556  A
C488       Br489   1.922       .  S
C493        C494   1.403       .  A
C493        C498   1.392       .  A
C493        H500   1.083       .  S
C494        C495   1.413       .  A
C495        C496   1.406       .  A
C495       Br502   1.919       .  S
C496        C497   1.408       .  A
C496        H501   1.084       .  S
C497        C498   1.413       .  A
C498       Br499   1.924       .  S
C503        C504   1.405       .  A
C503        C508   1.406   1_565  A
C503        H510   1.083       .  S
C504        C505   1.412       .  A
C505        C506   1.396   1_565  A
C505       Br512   1.924       .  S
C506        C507   1.405       .  A
C506        H511   1.083       .  S
C507        C508   1.414       .  A
C508       Br509   1.919       .  S
C513        C514   1.403       .  A
C513        C518   1.394       .  A
C513        H520   1.083       .  S
C514        C515   1.411       .  A
C515        C516   1.403   1_556  A
C515       Br522   1.919       .  S
C516        C517   1.406       .  A
C516        H521   1.084       .  S
C517        C518   1.412   1_554  A
C518       Br519   1.923   1_556  S
C523        C524   1.405       .  A
C523        C528   1.396       .  A
C523        H530   1.083       .  S
C524        C525   1.413       .  A
C525        C526   1.403       .  A
C525       Br532   1.919       .  S
C526        C527   1.404       .  A
C526        H531   1.083       .  S
C527        C528   1.410       .  A
C528       Br529   1.923       .  S
C533        C534   1.403       .  A
C533        C538   1.393       .  A
C533        H540   1.083       .  S
C534        C535   1.410       .  A
C535        C536   1.400       .  A
C535       Br542   1.920       .  S
C536        C537   1.407       .  A
C536        H541   1.082       .  S
C537        C538   1.415       .  A
C538       Br539   1.924       .  S
C543        C544   1.404       .  A
C543        C548   1.394   1_545  A
C543        H550   1.083       .  S
C544        C545   1.412       .  A
C545        C546   1.405   1_545  A
C545       Br552   1.919       .  S
C546        C547   1.407       .  A
C546        H551   1.082       .  S
C547        C548   1.413       .  A
C548       Br549   1.924       .  S
C553        C554   1.406       .  A
C553        C558   1.396       .  A
C553        H560   1.083       .  S
C554        C555   1.414       .  A
C555        C556   1.401       .  A
C555       Br562   1.920       .  S
C556        C557   1.405       .  A
C556        H561   1.083       .  S
C557        C558   1.413       .  A
C558       Br559   1.923       .  S
C563        C564   1.406       .  A
C563        C568   1.405       .  A
C563        H570   1.082       .  S
C564        C565   1.411       .  A
C565        C566   1.391       .  A
C565       Br572   1.923       .  S
C566        C567   1.401       .  A
C566        H571   1.083       .  S
C567        C568   1.412       .  A
C568       Br569   1.919       .  S
C573        C574   1.404       .  A
C573        C578   1.395       .  A
C573        H580   1.083       .  S
C574        C575   1.412       .  A
C575        C576   1.403       .  A
C575       Br582   1.919       .  S
C576        C577   1.406       .  A
C576        H581   1.083       .  S
C577        C578   1.414       .  A
C578       Br579   1.924       .  S
C583        C584   1.403   1_556  A
C583        C588   1.397       .  A
C583        H590   1.083       .  S
C584        C585   1.412       .  A
C585        C586   1.399       .  A
C585       Br592   1.921       .  S
C586        C587   1.406   1_554  A
C586        H591   1.083       .  S
C587        C588   1.416       .  A
C588       Br589   1.923       .  S
C593        C594   1.404       .  A
C593        C598   1.402   1_655  A
C593        H600   1.083       .  S
C594        C595   1.410       .  A
C595        C596   1.394   1_655  A
C595       Br602   1.923       .  S
C596        C597   1.404       .  A
C596        H601   1.083       .  S
C597        C598   1.413       .  A
C598       Br599   1.920       .  S
C603        C604   1.402   1_554  A
C603        C608   1.398       .  A
C603        H610   1.084       .  S
C604        C605   1.412       .  A
C605        C606   1.401       .  A
C605       Br612   1.922       .  S
C606        C607   1.404   1_556  A
C606        H611   1.084       .  S
C607        C608   1.410       .  A
C608       Br609   1.920       .  S
C613        C614   1.405       .  A
C613        C618   1.403       .  A
C613        H620   1.082       .  S
C614        C615   1.415       .  A
C615        C616   1.397       .  A
C615       Br622   1.925       .  S
C616        C617   1.405       .  A
C616        H621   1.082       .  S
C617        C618   1.414       .  A
C618       Br619   1.920       .  S
C623        C624   1.404       .  A
C623        C628   1.397       .  A
C623        H630   1.083       .  S
C624        C625   1.414       .  A
C625        C626   1.399       .  A
C625       Br632   1.921       .  S
C626        C627   1.404       .  A
C626        H631   1.083       .  S
C627        C628   1.414       .  A
C628       Br629   1.923       .  S
C633        C634   1.405       .  A
C633        C638   1.396       .  A
C633        H640   1.084       .  S
C634        C635   1.414       .  A
C635        C636   1.402       .  A
C635       Br642   1.921       .  S
C636        C637   1.407       .  A
C636        H641   1.083       .  S
C637        C638   1.414       .  A
C638       Br639   1.923       .  S
C643        C644   1.405       .  A
C643        C648   1.395   1_455  A
C643        H650   1.083       .  S
C644        C645   1.415       .  A
C645        C646   1.406   1_455  A
C645       Br652   1.920       .  S
C646        C647   1.407       .  A
C646        H651   1.082       .  S
C647        C648   1.413       .  A
C648       Br649   1.924       .  S
C653        C654   1.404       .  A
C653        C658   1.399       .  A
C653        H660   1.082       .  S
C654        C655   1.412       .  A
C655        C656   1.397       .  A
C655       Br662   1.920       .  S
C656        C657   1.404       .  A
C656        H661   1.083       .  S
C657        C658   1.413       .  A
C658       Br659   1.922       .  S
C663        C664   1.405       .  A
C663        C668   1.398       .  A
C663        H670   1.084       .  S
C664        C665   1.415       .  A
C665        C666   1.402       .  A
C665       Br672   1.922       .  S
C666        C667   1.403       .  A
C666        H671   1.084       .  S
C667        C668   1.409       .  A
C668       Br669   1.919       .  S
C673        C674   1.405       .  A
C673        C678   1.397   1_455  A
C673        H680   1.083       .  S
C674        C675   1.413       .  A
C675        C676   1.404   1_455  A
C675       Br682   1.919       .  S
C676        C677   1.404       .  A
C676        H681   1.082       .  S
C677        C678   1.408       .  A
C678       Br679   1.921       .  S
C683        C684   1.404   1_554  A
C683        C688   1.400       .  A
C683        H690   1.083       .  S
C684        C685   1.412       .  A
C685        C686   1.398       .  A
C685       Br692   1.922       .  S
C686        C687   1.405   1_556  A
C686        H691   1.083       .  S
C687        C688   1.414       .  A
C688       Br689   1.921       .  S
C693        C694   1.403       .  A
C693        C698   1.394   1_565  A
C693        H700   1.083       .  S
C694        C695   1.411       .  A
C695        C696   1.403   1_565  A
C695       Br702   1.919       .  S
C696        C697   1.407       .  A
C696        H701   1.083       .  S
C697        C698   1.414       .  A
C698       Br699   1.924       .  S
C703        C704   1.407       .  A
C703        C708   1.400       .  A
C703        H710   1.084       .  S
C704        C705   1.416   1_556  A
C705        C706   1.398       .  A
C705       Br712   1.923       .  S
C706        C707   1.402       .  A
C706        H711   1.085       .  S
C707        C708   1.410   1_554  A
C708       Br709   1.920       .  S
C713        C714   1.405   1_556  A
C713        C718   1.400       .  A
C713        H720   1.084       .  S
C714        C715   1.412       .  A
C715        C716   1.402       .  A
C715       Br722   1.920       .  S
C716        C717   1.404   1_554  A
C716        H721   1.084       .  S
C717        C718   1.412       .  A
C718       Br719   1.921       .  S
C723        C724   1.406       .  A
C723        C728   1.403   1_455  A
C723        H730   1.082       .  S
C724        C725   1.414       .  A
C725        C726   1.394   1_455  A
C725       Br732   1.924       .  S
C726        C727   1.405       .  A
C726        H731   1.083       .  S
C727        C728   1.414       .  A
C728       Br729   1.919       .  S
C733        C734   1.405       .  A
C733        C738   1.400       .  A
C733        H740   1.084       .  S
C734        C735   1.414       .  A
C735        C736   1.398       .  A
C735       Br742   1.922       .  S
C736        C737   1.406       .  A
C736        H741   1.083       .  S
C737        C738   1.414       .  A
C738       Br739   1.921       .  S
C743        C744   1.404       .  A
C743        C748   1.400       .  A
C743        H750   1.083       .  S
C744        C745   1.413       .  A
C745        C746   1.401       .  A
C745       Br752   1.920       .  S
C746        C747   1.406       .  A
C746        H751   1.083       .  S
C747        C748   1.417       .  A
C748       Br749   1.923       .  S
C753        C754   1.405       .  A
C753        C758   1.395   1_565  A
C753        H760   1.083       .  S
C754        C755   1.414       .  A
C755        C756   1.407   1_565  A
C755       Br762   1.918       .  S
C756        C757   1.406       .  A
C756        H761   1.082       .  S
C757        C758   1.411       .  A
C758       Br759   1.924       .  S
C763        C764   1.407       .  A
C763        C768   1.402       .  A
C763        H770   1.083       .  S
C764        C765   1.415       .  A
C765        C766   1.396       .  A
C765       Br772   1.922       .  S
C766        C767   1.403       .  A
C766        H771   1.084       .  S
C767        C768   1.414       .  A
C768       Br769   1.921       .  S
C773        C774   1.405       .  A
C773        C778   1.399       .  A
C773        H780   1.083       .  S
C774        C775   1.415       .  A
C775        C776   1.401       .  A
C775       Br782   1.922       .  S
C776        C777   1.405       .  A
C776        H781   1.083       .  S
C777        C778   1.412       .  A
C778       Br779   1.921       .  S
C783        C784   1.406       .  A
C783        C788   1.402       .  A
C783        H790   1.083       .  S
C784        C785   1.414       .  A
C785        C786   1.402       .  A
C785       Br792   1.920       .  S
C786        C787   1.403       .  A
C786        H791   1.084       .  S
C787        C788   1.411       .  A
C788       Br789   1.920       .  S
