geometry optimzed in LAMMPS
_audit_creation_date              2020-12-01 
_audit_creation_method            'lammps2cif' 
_symmetry_space_group_name_H-M    'P1' 
_symmetry_Int_Tables_number       1 
_symmetry_cell_setting            triclinic 
loop_ 
_symmetry_equiv_pos_as_xyz 
  x,y,z 
_cell_length_a                    109.00177359 
_cell_length_b                    108.94777125670431 
_cell_length_c                    48.733680838417 
_cell_angle_alpha                 89.85572064136329 
_cell_angle_beta                  90.17965959814244 
_cell_angle_gamma                 120.12247069338136 
loop_ 
_atom_site_label 
_atom_site_type_symbol 
_atom_site_fract_x 
_atom_site_fract_y 
_atom_site_fract_z 
_atom_site_charge 
O1          O  0.72238226  0.90218405  0.10158729    -0.57300
C2          C  0.75232084  0.89934124  0.14179371     0.75300
O3          O  0.76144646  0.91162935  0.05511132    -0.58500
C4          C  0.71982043  0.90527613  0.07803501     0.75300
C5          C  0.76440530  0.94291523  0.10765756     0.77700
Cd6        Cd  0.74808313  0.91287912  0.09522024     1.37500
O7          O  0.74097241  0.89962573  0.13824939    -0.57300
O8          O  0.75332387  0.93451559  0.12078697    -0.56100
C9          C  0.75343470  0.89837254  0.05187131     0.77600
O10         O  0.76774690  0.93757104  0.08805964    -0.58500
O11         O  0.76201136  0.90577836  0.12423950    -0.56900
O12         O  0.73047826  0.91294500  0.06312772    -0.56900
O13         O  0.74343985  0.89214657  0.06886479    -0.56100
O14         O  0.83744047  0.09169442  0.11684807    -0.57300
C15         C  0.80862737  0.08534896  0.17306309     0.75300
O16         O  0.82652781  0.05391984  0.16961784    -0.58500
C17         C  0.84700130  0.08877051  0.11112084     0.75300
C18         C  0.84970831  0.09404282  0.20097417     0.77700
Cd19       Cd  0.82959395  0.07760982  0.15918523     1.37500
O20         O  0.81057496  0.08312076  0.14838856    -0.57300
O21         O  0.84842420  0.09950154  0.17902772    -0.56100
C22         C  0.81566873  0.04704748  0.15463637     0.77600
O23         O  0.84213315  0.08066981  0.20330000    -0.58500
O24         O  0.81575956  0.08315573  0.19087159    -0.56900
O25         O  0.84808513  0.08018672  0.12703651    -0.56900
O26         O  0.81100895  0.05420202  0.14266272    -0.56100
O27         O  0.09614462  0.27437438  0.34391286    -0.57300
C28         C  0.09642959  0.24311424  0.38534092     0.75300
O29         O  0.05864923  0.22959596  0.33107794    -0.58500
C30         C  0.08938781  0.27673096  0.32550012     0.75300
C31         C  0.09757792  0.24381133  0.29288819     0.77700
Cd32       Cd  0.08359631  0.24851409  0.33865902     1.37500
O33         O  0.09706790  0.25492304  0.38178310    -0.57300
O34         O  0.10409503  0.25310347  0.31106235    -0.56100
C35         C  0.05385613  0.23276453  0.35187451     0.77600
O36         O  0.08427464  0.23617503  0.29588617    -0.58500
O37         O  0.08939730  0.23356504  0.36778618    -0.56900
O38         O  0.07947580  0.26592342  0.31382461    -0.56900
O39         O  0.06272439  0.24319904  0.36601563    -0.56100
O40         O  0.90993266  0.16527287  0.36436156    -0.57300
C41         C  0.91058037  0.18756345  0.42504494     0.75300
O42         O  0.91893126  0.16151927  0.46013481    -0.58500
C43         C  0.90792956  0.15290978  0.36054200     0.75300
C44         C  0.95024857  0.18067528  0.40194847     0.77700
Cd45       Cd  0.92009407  0.16790575  0.41090091     1.37500
O46         O  0.90247629  0.17571970  0.41386103    -0.57300
O47         O  0.94309679  0.18598014  0.39262246    -0.56100
C48         C  0.90823125  0.14922813  0.45752515     0.77600
O49         O  0.94349122  0.16925694  0.41543700    -0.58500
O50         O  0.92327031  0.19056833  0.42885523    -0.56900
O51         O  0.91217067  0.14787146  0.37927957    -0.56900
O52         O  0.90351630  0.14546077  0.43346762    -0.56100
O53         O  0.16670384  0.89513661  0.38148519    -0.57300
C54         C  0.19341991  0.90197010  0.32214100     0.75300
O55         O  0.16262377  0.90861288  0.29115156    -0.58500
C56         C  0.15489894  0.89440264  0.38566083     0.75300
C57         C  0.18353995  0.93802738  0.35021188     0.77700
Cd58       Cd  0.17172382  0.90836886  0.33790266     1.37500
O59         O  0.18464310  0.89523361  0.34103350    -0.57300
O60         O  0.18937349  0.93114691  0.35836854    -0.56100
C61         C  0.15364124  0.89547804  0.29074691     0.77600
O62         O  0.17220670  0.93127356  0.33650461    -0.58500
O63         O  0.19278681  0.91231414  0.31188055    -0.56900
O64         O  0.15129180  0.90078430  0.36857336    -0.56900
O65         O  0.15273339  0.88861371  0.31228617    -0.56100
O66         O  0.24808651  0.09211189  0.39104095    -0.57300
C67         C  0.27812961  0.08029324  0.42286688     0.75300
O68         O  0.23106535  0.07266801  0.44145514    -0.58500
C69         C  0.24811945  0.08868692  0.36632874     0.75300
C70         C  0.23281302  0.04170451  0.39868362     0.77700
Cd71       Cd  0.24899743  0.07172746  0.41127267     1.37500
O72         O  0.27473290  0.08630372  0.40452201    -0.57300
O73         O  0.24614272  0.04882592  0.39630632    -0.56100
C74         C  0.23976056  0.07927959  0.46061451     0.77600
O75         O  0.22683450  0.04837757  0.40708092    -0.58500
O76         O  0.26801236  0.06989304  0.43512959    -0.56900
O77         O  0.24865508  0.07750883  0.36225407    -0.56900
O78         O  0.25221062  0.08151190  0.45745289    -0.56100
O79         O  0.26096128  0.15158844  0.12073089    -0.57300
C80         C  0.28512842  0.18351267  0.16650698     0.75300
O81         O  0.23688751  0.17008051  0.16534202    -0.58500
C82         C  0.24842478  0.14447535  0.11146380     0.75300
C83         C  0.24875997  0.14555702  0.20280775     0.77700
Cd84       Cd  0.25550707  0.16417739  0.15616516     1.37500
O85         O  0.28090129  0.17906188  0.14236815    -0.57300
O86         O  0.25300878  0.15861854  0.20558625    -0.56100
C87         C  0.24109259  0.17999443  0.14791729     0.77600
O88         O  0.24667048  0.14092338  0.17850937    -0.58500
O89         O  0.27575902  0.17949176  0.18487813    -0.56900
O90         O  0.23926238  0.14687115  0.12215742    -0.56900
O91         O  0.25209799  0.18275591  0.13451261    -0.56100
O92         O  0.18583367  0.27308065  0.08772141    -0.57300
C93         C  0.15658894  0.24264885  0.13556295     0.75300
O94         O  0.16054478  0.23316298  0.04709680    -0.58500
C95         C  0.19636584  0.27545009  0.07309332     0.75300
C96         C  0.18891362  0.23203168  0.10204666     0.77700
Cd97       Cd  0.17434971  0.24720900  0.08822038     1.37500
O98         O  0.16830821  0.25396214  0.13221712    -0.57300
O99         O  0.19163043  0.24344924  0.11386842    -0.56100
C100        C  0.15661800  0.24191642  0.04040072     0.77600
O101        O  0.17945801  0.22760654  0.08353083    -0.58500
O102        O  0.15314928  0.23325512  0.11729041    -0.56900
O103        O  0.19707423  0.26463897  0.06609208    -0.56900
O104        O  0.16068825  0.25257661  0.05575155    -0.56100
O105        O  0.09091021  0.82475681  0.13623742    -0.57300
C106        C  0.09024850  0.79619899  0.08155481     0.75300
O107        O  0.05677874  0.81282298  0.08373740    -0.58500
C108        C  0.09431422  0.83758396  0.13277309     0.75300
C109        C  0.09438127  0.83302375  0.04116347     0.77700
Cd110      Cd  0.08121206  0.81676452  0.08990657     1.37500
O111        O  0.09400425  0.80424931  0.10229935    -0.57300
O112        O  0.10126219  0.83116172  0.06003121    -0.56100
C113        C  0.05113846  0.80340528  0.10215617     0.77600
O114        O  0.08109249  0.82736701  0.04455973    -0.58500
O115        O  0.08132306  0.79677371  0.06568547    -0.56900
O116        O  0.09131385  0.84078127  0.10977014    -0.56900
O117        O  0.05922292  0.79986468  0.11401681    -0.56100
O118        O  0.90485608  0.71396308  0.14532560    -0.57300
C119        C  0.90632732  0.74778258  0.10822024     0.75300
O120        O  0.91452602  0.75189031  0.19656460    -0.58500
C121        C  0.90742048  0.71040799  0.16843935     0.75300
C122        C  0.94699881  0.75469185  0.14880102     0.77700
Cd123      Cd  0.91651219  0.73965601  0.15549483     1.37500
O124        O  0.90601246  0.73602652  0.10940272    -0.57300
O125        O  0.93871572  0.74468866  0.13314721    -0.56100
C126        C  0.90113302  0.74436202  0.19797791     0.77600
O127        O  0.94129325  0.75750128  0.16854125    -0.58500
O128        O  0.91191925  0.75607969  0.12834560    -0.56900
O129        O  0.91477625  0.72042055  0.18493334    -0.56900
O130        O  0.89502783  0.73503550  0.17962913    -0.56100
O131        O  0.83223445  0.73489779  0.35958174    -0.57300
C132        C  0.80552262  0.71230704  0.42140391     0.75300
O133        O  0.84123250  0.75384970  0.44656594    -0.58500
C134        C  0.84415798  0.74609414  0.35697795     0.75300
C135        C  0.81276330  0.75585528  0.39587444     0.77700
Cd136      Cd  0.82731978  0.74044555  0.40568879     1.37500
O137        O  0.81546131  0.71436411  0.40531714    -0.57300
O138        O  0.81241036  0.74691149  0.37892461    -0.56100
C139        C  0.84686179  0.74624350  0.45030267     0.77600
O140        O  0.82004884  0.75789624  0.41745577    -0.58500
O141        O  0.80528561  0.72323675  0.42918009    -0.56900
O142        O  0.84813360  0.75487503  0.37658141    -0.56900
O143        O  0.84379670  0.73648692  0.43304907    -0.56100
O144        O  0.73635805  0.82464120  0.38999542    -0.57300
C145        C  0.71445215  0.79814993  0.32993881     0.75300
O146        O  0.75939964  0.83740856  0.31023981    -0.58500
C147        C  0.74650714  0.83730403  0.39172666     0.75300
C148        C  0.75866268  0.80624853  0.35605522     0.77700
Cd149      Cd  0.74275375  0.82008576  0.34432947     1.37500
O150        O  0.71683821  0.80792281  0.34676803    -0.57300
O151        O  0.75195021  0.80851912  0.37455000    -0.56100
C152        C  0.75034395  0.84025141  0.30039477     0.77600
O153        O  0.75816378  0.81046748  0.33207984    -0.58500
O154        O  0.72521882  0.79816105  0.32030043    -0.56900
O155        O  0.75496785  0.84192259  0.37164155    -0.56900
O156        O  0.73799164  0.83348829  0.31029663    -0.56100
O157        O  0.76486798  0.16497375  0.29861425    -0.57300
C158        C  0.76010907  0.13756857  0.24018972     0.75300
O159        O  0.72650107  0.15098701  0.24846881    -0.58500
C160        C  0.76561152  0.17689161  0.30057238     0.75300
C161        C  0.76416559  0.17696684  0.20907842     0.77700
Cd162      Cd  0.75185474  0.15811219  0.25520685     1.37500
O163        O  0.76335830  0.14388291  0.26305135    -0.57300
O164        O  0.77143518  0.17430982  0.22576946    -0.56100
C165        C  0.72207655  0.14352968  0.27001839     0.77600
O166        O  0.75101790  0.17130088  0.21406607    -0.58500
O167        O  0.75210796  0.13993737  0.22492865    -0.56900
O168        O  0.75985344  0.18020707  0.28161600    -0.56900
O169        O  0.73128669  0.14258855  0.28418634    -0.56100
O170        O  0.58256351  0.05307650  0.31681143    -0.57300
C171        C  0.57427013  0.08226685  0.27649496     0.75300
O172        O  0.58743844  0.09181502  0.36387072    -0.58500
C173        C  0.58197871  0.05006371  0.34206771     0.75300
C174        C  0.61779163  0.09292914  0.31542751     0.77700
Cd175      Cd  0.58755214  0.07773849  0.32403929     1.37500
O176        O  0.57074296  0.06993647  0.28492241    -0.57300
O177        O  0.60953194  0.08181548  0.30220382    -0.56100
C178        C  0.57428026  0.08393295  0.36835316     0.77600
O179        O  0.61211452  0.09704557  0.33301623    -0.58500
O180        O  0.58408822  0.09245851  0.28966879    -0.56900
O181        O  0.58447806  0.05998951  0.35852600    -0.56900
O182        O  0.56738667  0.07390018  0.35163957    -0.56100
O183        O  0.50417314  0.07012542  0.02941811    -0.57300
C184        C  0.47810125  0.04676299  0.08827703     0.75300
O185        O  0.50359916  0.08360433  0.12113535    -0.58500
C186        C  0.51509707  0.08223523  0.02618029     0.75300
C187        C  0.48128879  0.09006439  0.05797077     0.77700
Cd188      Cd  0.49686168  0.07597641  0.07282390     1.37500
O189        O  0.48785255  0.05013903  0.07081079    -0.57300
O190        O  0.47826621  0.07814128  0.04811240    -0.56100
C191        C  0.51519442  0.08359740  0.11999546     0.77600
O192        O  0.49150630  0.09551003  0.07485473    -0.58500
O193        O  0.47658691  0.05674740  0.09753461    -0.56900
O194        O  0.51734649  0.09155015  0.04404754    -0.56900
O195        O  0.51852998  0.08082644  0.09701021    -0.56100
O196        O  0.38465489  0.14205676  0.99514386    -0.57300
C197        C  0.41444022  0.16964336  0.03785054     0.75300
O198        O  0.43148571  0.14934525  0.98764937    -0.58500
C199        C  0.38115203  0.13326139  0.47567039     0.75300
C200        C  0.41742960  0.17190885  0.44444665     0.77700
Cd201      Cd  0.41044804  0.15261736  0.99014312     1.37500
O202        O  0.40333734  0.15768552  0.03461978    -0.57300
O203        O  0.41523698  0.17493415  0.46824396    -0.56100
C204        C  0.42672309  0.13892711  0.00401866     0.77600
O205        O  0.41693219  0.16011599  0.44165591    -0.58500
O206        O  0.42382544  0.17350385  0.01941721    -0.56900
O207        O  0.39118434  0.13288109  0.46348217    -0.56900
O208        O  0.41447521  0.13475158  0.01349614    -0.56100
O209        O  0.40866138  0.23136102  0.28280445    -0.57300
C210        C  0.38723737  0.23820801  0.22420474     0.75300
O211        O  0.43280073  0.27099386  0.23175337    -0.58500
C212        C  0.42089505  0.23341113  0.28832590     0.75300
C213        C  0.42080606  0.23084557  0.19754298     0.77700
Cd214      Cd  0.41535951  0.24558174  0.24077413     1.37500
O215        O  0.38967929  0.23472268  0.24750888    -0.57300
O216        O  0.40993873  0.22507639  0.21260654    -0.56100
C217        C  0.42943027  0.27547548  0.25275981     0.77600
O218        O  0.42964520  0.24376256  0.20262865    -0.58500
O219        O  0.39789848  0.24610616  0.20950342    -0.56900
O220        O  0.43074479  0.24133439  0.27202377    -0.56900
O221        O  0.41944585  0.26627734  0.26727846    -0.56100
O222        O  0.47683034  0.41760134  0.31573205    -0.57300
C223        C  0.51136512  0.42269163  0.28042353     0.75300
O224        O  0.50678211  0.40806185  0.36526255    -0.58500
C225        C  0.47226161  0.41650920  0.33997883     0.75300
C226        C  0.47808899  0.37777241  0.31302651     0.77700
Cd227      Cd  0.49240945  0.40789230  0.32534789     1.37500
O228        O  0.49901451  0.42094296  0.28154312    -0.57300
O229        O  0.47342997  0.38570024  0.30499384    -0.56100
C230        C  0.51087708  0.42083512  0.37156998     0.77600
O231        O  0.48910143  0.38357165  0.32785206    -0.58500
O232        O  0.51486250  0.41729714  0.29968995    -0.56900
O233        O  0.47597520  0.41014477  0.35696840    -0.56900
O234        O  0.50608581  0.42710007  0.35701229    -0.56100
O235        O  0.56802699  0.49122289  0.03495142    -0.57300
C236        C  0.57594559  0.52043719  0.09163025     0.75300
O237        O  0.58291493  0.48382143  0.11410088    -0.58500
C238        C  0.56887903  0.48023708  0.03066744     0.75300
C239        C  0.61341605  0.51392974  0.06715027     0.84900
Cd240      Cd  0.58307460  0.49910217  0.07621756     1.37500
O241        O  0.57513459  0.51644281  0.06699979    -0.57300
O242        O  0.60499557  0.51503822  0.05080569    -0.56100
C243        C  0.57007058  0.47927557  0.12036539     0.77600
O244        O  0.60786399  0.50615304  0.08795707    -0.58500
O245        O  0.58066848  0.51507069  0.10873898    -0.56900
O246        O  0.57673001  0.47816472  0.04689039    -0.56900
O247        O  0.56348997  0.48383991  0.10609929    -0.56100
O248        O  0.76003877  0.59179870  0.05300628    -0.57300
C249        C  0.75634104  0.61297858  0.49343619     0.75300
O250        O  0.74757365  0.57690716  0.46091813    -0.58500
C251        C  0.76122196  0.58093164  0.05671057     0.75300
C252        C  0.71781608  0.56792372  0.02352272     0.77700
Cd253      Cd  0.74747157  0.58420132  0.00909482     1.37500
O254        O  0.76160086  0.61010659  0.01391685    -0.57300
O255        O  0.72592146  0.58019474  0.03295568    -0.56100
C256        C  0.75944326  0.57749436  0.46275926     0.77600
O257        O  0.72336611  0.56311964  0.00714037    -0.58500
O258        O  0.74639027  0.60254016  0.48101421    -0.56900
O259        O  0.75567003  0.57132091  0.03862755    -0.56900
O260        O  0.76536893  0.58056973  0.48602989    -0.56100
O261        O  0.83036107  0.58968864  0.30265123    -0.57300
C262        C  0.85928854  0.61107496  0.24362961     0.75300
O263        O  0.84347452  0.56365511  0.24902886    -0.58500
C264        C  0.82044997  0.57740242  0.30889163     0.75300
C265        C  0.81811842  0.57764803  0.21731186     0.77700
Cd266      Cd  0.83815120  0.58272556  0.26072138     1.37500
O267        O  0.85706465  0.60777773  0.26880239    -0.57300
O268        O  0.82148573  0.58720508  0.23520270    -0.56100
C269        C  0.85357713  0.56751716  0.26595754     0.77600
O270        O  0.82362019  0.56984773  0.21995906    -0.58500
O271        O  0.85231135  0.60111183  0.22687471    -0.56900
O272        O  0.81906188  0.56745666  0.29349345    -0.56900
O273        O  0.85646534  0.57827199  0.28038545    -0.56100
O274        O  0.95085447  0.51314913  0.32229903    -0.57300
C275        C  0.92203182  0.48877250  0.27135129     0.75300
O276        O  0.91706067  0.49752675  0.36808640    -0.58500
C277        C  0.95402441  0.52315792  0.33902205     0.75300
C278        C  0.90924435  0.51856718  0.30700432     0.77700
Cd279      Cd  0.92528734  0.50483285  0.32038738     1.37500
O280        O  0.93238099  0.50125373  0.27449073    -0.57300
O281        O  0.92150484  0.52286189  0.29740455    -0.56100
C282        C  0.91718355  0.48599225  0.36667102     0.77600
O283        O  0.90439409  0.50799450  0.32300031    -0.58500
O284        O  0.91299929  0.48392674  0.29051749    -0.56900
O285        O  0.94410283  0.52535014  0.34579619    -0.56900
O286        O  0.92008597  0.48284424  0.34359516    -0.56100
O287        O  0.83414601  0.23611071  0.05038585    -0.57300
C288        C  0.86176762  0.23929411  0.49295996     0.75300
O289        O  0.82921398  0.24801992  0.46389134    -0.58500
C290        C  0.82294646  0.23681301  0.05229434     0.75300
C291        C  0.85783961  0.27924062  0.01354473     0.77700
Cd292      Cd  0.84206925  0.24868612  0.00639784     1.37500
O293        O  0.85617219  0.23717091  0.01646662    -0.57300
O294        O  0.85974523  0.27101118  0.02904958    -0.56100
C295        C  0.82340627  0.23469860  0.46104740     0.77600
O296        O  0.84878670  0.27337659  0.99460227    -0.58500
O297        O  0.85921378  0.24674452  0.47654470    -0.56900
O298        O  0.82077911  0.24350626  0.03344218    -0.56900
O299        O  0.82566753  0.22802396  0.47975775    -0.56100
O300        O  0.94994991  0.42369704  0.06242959    -0.57300
C301        C  0.91949392  0.42689480  0.02201236     0.75300
O302        O  0.90576064  0.38898964  0.07609248    -0.58500
C303        C  0.95233819  0.42079465  0.08632294     0.75300
C304        C  0.91858631  0.42878329  0.11169563     0.77700
Cd305      Cd  0.92445389  0.41414967  0.06917622     1.37500
O306        O  0.93184303  0.42997215  0.02940889    -0.57300
O307        O  0.92901183  0.43491678  0.09562183    -0.56100
C308        C  0.90982207  0.38412098  0.05674900     0.77600
O309        O  0.91042776  0.41558093  0.10797269    -0.58500
O310        O  0.90935731  0.41761658  0.03616045    -0.56900
O311        O  0.94168709  0.41404960  0.10180072    -0.56900
O312        O  0.92075733  0.39304757  0.04386374    -0.56100
O313        O  0.05659665  0.56562626  0.42768403    -0.57300
C314        C  0.08707528  0.56767152  0.47414832     0.75300
O315        O  0.09598860  0.57889279  0.38378252    -0.58500
C316        C  0.05418971  0.57196358  0.40851395     0.75300
C317        C  0.09980183  0.60949637  0.43419521     0.77700
Cd318      Cd  0.08264194  0.57934996  0.42457650     1.37500
O319        O  0.07788927  0.57148674  0.47252868    -0.57300
O320        O  0.08940601  0.60149803  0.44931000    -0.56100
C321        C  0.08903065  0.56551646  0.38118729     0.77600
O322        O  0.10228765  0.60360808  0.41432685    -0.58500
O323        O  0.09454830  0.56964100  0.45300868    -0.56900
O324        O  0.06494416  0.58219454  0.39740069    -0.56900
O325        O  0.07941188  0.55873891  0.39869447    -0.56100
O326        O  0.15087659  0.75630788  0.49145828    -0.57300
C327        C  0.18066064  0.75702254  0.44158778     0.75300
O328        O  0.17994549  0.74554442  0.02928180    -0.58500
C329        C  0.14238137  0.74892608  0.01032660     0.75300
C330        C  0.15089697  0.71382849  0.47854611     0.77700
Cd331      Cd  0.16425494  0.74374967  0.49037628     1.37500
O332        O  0.16817185  0.75479372  0.44447608    -0.57300
O333        O  0.14688255  0.72174428  0.46750382    -0.56100
C334        C  0.18342339  0.75821224  0.03523853     0.77600
O335        O  0.16107734  0.71967288  0.49548246    -0.58500
O336        O  0.18541533  0.75282459  0.46091511    -0.56900
O337        O  0.14341283  0.73847962  0.01876063    -0.56900
O338        O  0.17811477  0.76388347  0.02041610    -0.56100
O339        O  0.16814328  0.39930223  0.19900107    -0.57300
C340        C  0.14128645  0.37724011  0.26154842     0.75300
O341        O  0.17860865  0.41978692  0.28170241    -0.58500
C342        C  0.18065925  0.40974326  0.19791798     0.75300
C343        C  0.14679016  0.42010405  0.23332666     0.77700
Cd344      Cd  0.16215479  0.40522743  0.24404920     1.37500
O345        O  0.14842004  0.37931369  0.23981587    -0.57300
O346        O  0.14462773  0.40935220  0.21965075    -0.56100
C347        C  0.18086403  0.41000233  0.28972119     0.77600
O348        O  0.15605935  0.42404735  0.25211012    -0.58500
O349        O  0.14300050  0.38814341  0.27412334    -0.56900
O350        O  0.18439637  0.41846667  0.21754480    -0.56900
O351        O  0.17470839  0.39848602  0.27653900    -0.56100
O352        O  0.07393553  0.49227532  0.22000872    -0.57300
C353        C  0.05296985  0.46866865  0.15111698     0.75300
O354        O  0.09431295  0.50194876  0.13332473    -0.58500
C355        C  0.08460532  0.50454531  0.22311971     0.75300
C356        C  0.09498795  0.47248439  0.18570438     0.77700
Cd357      Cd  0.08051443  0.48807798  0.17374323     1.37500
O358        O  0.05441900  0.47309541  0.17556645    -0.57300
O359        O  0.08294248  0.46896139  0.19545971    -0.56100
C360        C  0.08827809  0.50931571  0.13189109     0.77600
O361        O  0.10040739  0.48315050  0.16988355    -0.58500
O362        O  0.06421391  0.47269897  0.13753661    -0.56900
O363        O  0.09337458  0.50902494  0.20353415    -0.56900
O364        O  0.07912082  0.50705723  0.15008362    -0.56100
O365        O  0.24434523  0.83054468  0.19628231    -0.57300
C366        C  0.24543422  0.85352593  0.25436374     0.75300
O367        O  0.25107144  0.82823670  0.28969559    -0.58500
C368        C  0.24286461  0.81834216  0.19295260     0.75300
C369        C  0.28672138  0.84928224  0.23086692     0.77700
Cd370      Cd  0.25644349  0.83502384  0.24079192     1.37500
O371        O  0.24074715  0.84502585  0.23430757    -0.57300
O372        O  0.27871204  0.85302255  0.21939976    -0.56100
C373        C  0.24289389  0.81516461  0.28503951     0.77600
O374        O  0.28082440  0.83884043  0.24711066    -0.58500
O375        O  0.25573689  0.85403920  0.26741530    -0.56900
O376        O  0.24839717  0.81423115  0.21097090    -0.56900
O377        O  0.24201442  0.81122666  0.26042135    -0.56100
O378        O  0.43247954  0.94648571  0.18500398    -0.57300
C379        C  0.43500905  0.91659251  0.23006476     0.75300
O380        O  0.39719217  0.90217360  0.17070804    -0.58500
C381        C  0.42678454  0.94769204  0.16323250     0.75300
C382        C  0.43679288  0.91528715  0.13938777     0.77700
Cd383      Cd  0.42173890  0.92046687  0.18210877     1.37500
O384        O  0.43575639  0.92832940  0.22476244    -0.57300
O385        O  0.44163881  0.92706573  0.15142979    -0.56100
C386        C  0.39165521  0.90423530  0.19170118     0.77600
O387        O  0.42466862  0.90554633  0.14703900    -0.58500
O388        O  0.42776846  0.90652534  0.21363812    -0.56900
O389        O  0.41788026  0.93624677  0.15165860    -0.56900
O390        O  0.39996510  0.91384888  0.20807316    -0.56100
O391        O  0.59287859  0.82587606  0.46428724    -0.57300
C392        C  0.61834377  0.85582378  0.01788008     0.75300
O393        O  0.57361880  0.84461124  0.51683727    -0.58500
C394        C  0.58154880  0.81397457  0.46495739     0.75300
C395        C  0.58301575  0.81766281  0.05761446     0.77700
Cd396      Cd  0.58915049  0.83450325  0.50836763     1.37500
O397        O  0.61484035  0.84424892  0.50583356    -0.57300
O398        O  0.59447842  0.82224187  0.04452772    -0.56100
C399        C  0.57535579  0.85024951  0.49332847     0.77600
O400        O  0.57433104  0.82121927  0.04853936    -0.58500
O401        O  0.60827775  0.85774700  0.02496461    -0.56900
O402        O  0.57357956  0.81160733  0.48544752    -0.56900
O403        O  0.58332488  0.84849940  0.47695971    -0.56100
O404        O  0.52949267  0.94835753  0.44278625    -0.57300
C405        C  0.49643785  0.91813675  0.48022176     0.75300
O406        O  0.50217576  0.91152367  0.38920295    -0.58500
C407        C  0.53503291  0.95171412  0.41919927     0.75300
C408        C  0.52822128  0.90666167  0.44232469     0.77700
Cd409      Cd  0.51416792  0.92291088  0.43293729     1.37500
O410        O  0.50819641  0.92940534  0.47698044    -0.57300
O411        O  0.53322726  0.91916211  0.45124461    -0.56100
C412        C  0.49564360  0.91836841  0.38724369     0.77600
O413        O  0.51687040  0.90172436  0.42856083    -0.58500
O414        O  0.49297927  0.90867760  0.46207105    -0.56900
O415        O  0.53159963  0.94160420  0.40252162    -0.56900
O416        O  0.49744433  0.92689604  0.40641973    -0.56100
O417        O  0.24018363  0.37962532  0.48487291    -0.57300
C418        C  0.23977634  0.40868935  0.44723746     0.75300
O419        O  0.24753190  0.40547956  0.04412629    -0.58500
C420        C  0.24425425  0.37593742  0.00609884     0.75300
C421        C  0.28345593  0.42297903  0.48772177     0.77700
Cd422      Cd  0.25328836  0.40547540  0.49548113     1.37500
O423        O  0.23304284  0.40342699  0.46927039    -0.57300
O424        O  0.27631553  0.41092096  0.47668585    -0.56100
C425        C  0.24208374  0.41326889  0.04133111     0.77600
O426        O  0.27681974  0.42696449  0.50320750    -0.58500
O427        O  0.25272220  0.41215824  0.44712571    -0.56900
O428        O  0.25289177  0.38590881  0.02137222    -0.56900
O429        O  0.24286551  0.41846960  0.01772579    -0.56100
O430        O  0.42796279  0.49519648  0.47583338    -0.57300
C431        C  0.42617664  0.47010470  0.41340004     0.75300
O432        O  0.39363174  0.48788623  0.42877311    -0.58500
C433        C  0.43054679  0.50788166  0.47677667     0.75300
C434        C  0.43022181  0.50815361  0.38349123     0.77700
Cd435      Cd  0.41737253  0.49000206  0.42969760     1.37500
O436        O  0.42710421  0.47402373  0.43812570    -0.57300
O437        O  0.43728280  0.50854796  0.40445146    -0.56100
C438        C  0.38726329  0.47590638  0.44048100     0.77600
O439        O  0.41692488  0.49973910  0.38408579    -0.58500
O440        O  0.42061340  0.47491823  0.39703530    -0.56900
O441        O  0.42673957  0.51219554  0.45612350    -0.56900
O442        O  0.39471127  0.47037605  0.44640345    -0.56100
O443        O  0.49953054  0.56372901  0.21961026    -0.57300
C444        C  0.52961416  0.57314171  0.16463636     0.75300
O445        O  0.49374324  0.57967366  0.14077813    -0.58500
C446        C  0.49055038  0.56708432  0.22739018     0.75300
C447        C  0.52249839  0.60970263  0.19175605     0.77700
Cd448      Cd  0.50810553  0.57982546  0.18024360     1.37500
O449        O  0.52603031  0.57288375  0.18938142    -0.57300
O450        O  0.52555896  0.60138693  0.20414540    -0.56100
C451        C  0.48754018  0.56638462  0.13698121     0.77600
O452        O  0.51325252  0.60436327  0.17296311    -0.58500
O453        O  0.52390587  0.57741964  0.14732332    -0.56900
O454        O  0.48979725  0.57651077  0.21358768    -0.56900
O455        O  0.49074687  0.55944472  0.15345051    -0.56100
O456        O  0.59064990  0.75703236  0.21773722    -0.57300
C457        C  0.61306843  0.75009661  0.27169567     0.75300
O458        O  0.57259471  0.74081718  0.30400433    -0.58500
C459        C  0.57849804  0.75535868  0.21302572     0.75300
C460        C  0.56971750  0.71256240  0.24646713     0.77700
Cd461      Cd  0.58432585  0.74237520  0.25941003     1.37500
O462        O  0.60980399  0.75420842  0.25000040    -0.57300
O463        O  0.58199288  0.72105303  0.23747860    -0.56100
C464        C  0.57930108  0.75406345  0.30826349     0.77600
O465        O  0.56420457  0.71778688  0.26191174    -0.58500
O466        O  0.60294297  0.74170905  0.28703055    -0.56900
O467        O  0.56884103  0.74756485  0.22977857    -0.56900
O468        O  0.58775315  0.76172342  0.28966414    -0.56100
C469        C  0.56218019  0.69737980  0.23891915     0.01800
C470        C  0.56114944  0.69342139  0.21105937     0.04700
C471        C  0.55410257  0.67900151  0.20374559    -0.11400
C472        C  0.54826608  0.66845726  0.22419776     0.24000
C473        C  0.54917085  0.67235229  0.25200573    -0.12000
C474        C  0.55605555  0.68679007  0.25937405     0.05400
C475        C  0.54159471  0.65329765  0.21634497     0.27800
C476        C  0.52671811  0.64481034  0.21477634    -0.12700
C477        C  0.52046976  0.63050991  0.20680714     0.05900
C478        C  0.52909928  0.62477956  0.19952286    -0.08600
C479        C  0.54398930  0.63331303  0.20094735     0.06700
C480        C  0.55021177  0.64749016  0.20968417    -0.13000
Br481      Br  0.54119170  0.65785520  0.27998762    -0.05100
Br482      Br  0.56891573  0.70767678  0.18257858     0.00600
Br483      Br  0.50007932  0.61857303  0.20764961     0.01000
Br484      Br  0.57058356  0.65903983  0.21254836    -0.03400
Br485      Br  0.55777128  0.69195024  0.29765604     0.01100
Br486      Br  0.55235420  0.67359110  0.16559596    -0.02700
Br487      Br  0.51492470  0.65282193  0.22349397    -0.03500
Br488      Br  0.55592199  0.62581773  0.18978125     0.00400
C489        C  0.47738226  0.55928018  0.11410481     0.01800
C490        C  0.48038796  0.56540434  0.08755374     0.04700
C491        C  0.47160451  0.55786348  0.06524328    -0.11400
C492        C  0.45980684  0.54424480  0.06926620     0.24000
C493        C  0.45621676  0.53851828  0.09585170    -0.12000
C494        C  0.46505299  0.54587913  0.11818594     0.05400
C495        C  0.45228429  0.53517513  0.04532332     0.27800
C496        C  0.44065686  0.53542939  0.03334693    -0.12700
C497        C  0.43345164  0.52648284  0.01098418     0.05900
C498        C  0.43792301  0.51724894  0.00048764    -0.08600
C499        C  0.44971483  0.51717426  0.01249944     0.06700
C500        C  0.45680009  0.52606505  0.03487899    -0.13000
Br501      Br  0.43931408  0.52030478  0.10126223    -0.05100
Br502      Br  0.49725659  0.58346413  0.08069824     0.00600
Br503      Br  0.41709856  0.52656501  0.99584351     0.01000
Br504      Br  0.47286817  0.52589305  0.05134115    -0.03400
Br505      Br  0.46009968  0.53726358  0.15409897     0.01100
Br506      Br  0.47602635  0.56583253  0.02876096    -0.02700
Br507      Br  0.43461543  0.54799290  0.04791718    -0.03500
Br508      Br  0.45689478  0.50557755  0.99759898     0.00400
C509        C  0.48128494  0.56008030  0.25109367     0.01800
C510        C  0.48724496  0.55911222  0.27615470     0.04700
C511        C  0.47836834  0.55096577  0.29776759    -0.11400
C512        C  0.46353896  0.54374339  0.29431883     0.24000
C513        C  0.45756278  0.54505840  0.26963885    -0.12000
C514        C  0.46641601  0.55347553  0.24823267     0.05400
C515        C  0.45423805  0.53442121  0.31638531     0.27800
C516        C  0.45061745  0.52006978  0.31713773    -0.12700
C517        C  0.44216650  0.51127565  0.33857069     0.05900
C518        C  0.43741428  0.51685912  0.35933433    -0.08600
C519        C  0.44075488  0.53111573  0.35823508     0.06700
C520        C  0.44917540  0.53991384  0.33673286    -0.13000
Br521      Br  0.43724146  0.53469376  0.26478786    -0.05100
Br522      Br  0.50756381  0.56942876  0.28129762     0.00600
Br523      Br  0.43739373  0.49166849  0.33984615     0.01000
Br524      Br  0.45412795  0.55956694  0.33537719    -0.03400
Br525      Br  0.45803780  0.55542504  0.21477290     0.01100
Br526      Br  0.48646822  0.54931333  0.33186743    -0.02700
Br527      Br  0.45760684  0.51263910  0.28913943    -0.03500
Br528      Br  0.43389013  0.53854492  0.38637868     0.00400
C529        C  0.29871221  0.43198860  0.48209575     0.01800
C530        C  0.30882274  0.43369477  0.50204959     0.04700
C531        C  0.32337584  0.44136394  0.49566066    -0.11400
C532        C  0.32782162  0.44756416  0.46949768     0.24000
C533        C  0.31771425  0.44621815  0.44985678    -0.12000
C534        C  0.30317201  0.43829532  0.45603191     0.05400
C535        C  0.34306582  0.45490228  0.46209120     0.27800
C536        C  0.35186621  0.46944243  0.46774044    -0.12700
C537        C  0.36634611  0.47633025  0.46078806     0.05900
C538        C  0.37198480  0.46877208  0.44732602    -0.08600
C539        C  0.36305597  0.45421539  0.44138362     0.06700
C540        C  0.34868756  0.44728454  0.44907737    -0.13000
Br541      Br  0.32386958  0.45506399  0.41434710    -0.05100
Br542      Br  0.30267507  0.42490249  0.03760001     0.00600
Br543      Br  0.37853980  0.49584578  0.47157629     0.01000
Br544      Br  0.33659029  0.42727661  0.44192195    -0.03400
Br545      Br  0.28931483  0.43600243  0.42872833     0.01100
Br546      Br  0.33725749  0.44296806  0.02228427    -0.02700
Br547      Br  0.34399010  0.47984494  0.48510601    -0.03500
Br548      Br  0.37021951  0.44378710  0.42159363     0.00400
C549        C  0.57801410  0.80333907  0.44309924     0.01800
C550        C  0.57801010  0.80712715  0.41540536     0.04700
C551        C  0.57635396  0.79759795  0.39437815    -0.11400
C552        C  0.57458583  0.78420971  0.40094053     0.24000
C553        C  0.57360535  0.78002514  0.42858576    -0.12000
C554        C  0.57540447  0.78960135  0.44968650     0.05400
C555        C  0.57538177  0.77530022  0.37884353     0.27800
C556        C  0.56309168  0.76534392  0.36472082    -0.12700
C557        C  0.56421865  0.75784316  0.34225621     0.05900
C558        C  0.57768510  0.76045342  0.33371594    -0.08600
C559        C  0.58987966  0.76988201  0.34883564     0.06700
C560        C  0.58873256  0.77734883  0.37120472    -0.13000
Br561      Br  0.57033823  0.76134675  0.43735185    -0.05100
Br562      Br  0.58004300  0.82528377  0.40618562     0.00600
Br563      Br  0.54738732  0.74453706  0.32250553     0.01000
Br564      Br  0.60552522  0.79074151  0.39106659    -0.03400
Br565      Br  0.57545368  0.78423752  0.48746500     0.01100
Br566      Br  0.57698263  0.80300374  0.35643926    -0.02700
Br567      Br  0.54483727  0.76242917  0.37567134    -0.03500
Br568      Br  0.60814688  0.77215800  0.33971376     0.00400
C569        C  0.57992136  0.80826498  0.08168342     0.01800
C570        C  0.56760626  0.79470091  0.08202853     0.04700
C571        C  0.56548582  0.78509473  0.10339846    -0.11400
C572        C  0.57565742  0.78900218  0.12444632     0.24000
C573        C  0.58773085  0.80268319  0.12456667    -0.12000
C574        C  0.58990140  0.81227257  0.10321321     0.05400
C575        C  0.57429345  0.77860200  0.14571597     0.27800
C576        C  0.56760838  0.77780346  0.17086130    -0.12700
C577        C  0.56853156  0.76982148  0.19275509     0.05900
C578        C  0.57594354  0.76236117  0.18932191    -0.08600
C579        C  0.58172673  0.76237217  0.16338700     0.06700
C580        C  0.58100157  0.77056749  0.14176450    -0.13000
Br581      Br  0.60150123  0.80807980  0.15378984    -0.05100
Br582      Br  0.55422697  0.78877047  0.05203227     0.00600
Br583      Br  0.56067657  0.77024788  0.22795765     0.01000
Br584      Br  0.58965371  0.77126082  0.10684899    -0.03400
Br585      Br  0.60657137  0.83092905  0.10368177     0.01100
Br586      Br  0.54894959  0.76638358  0.10340124    -0.02700
Br587      Br  0.55767932  0.78815669  0.17543186    -0.03500
Br588      Br  0.59044938  0.75096715  0.15706338     0.00400
C589        C  0.56853433  0.85854987  0.48532958     0.01800
C590        C  0.56116433  0.85582291  0.46012703     0.04700
C591        C  0.55488866  0.86387735  0.45234577    -0.11400
C592        C  0.55570075  0.87451371  0.46986996     0.24000
C593        C  0.56302351  0.87725679  0.49502669    -0.12000
C594        C  0.56959188  0.86943642  0.50258983     0.05400
C595        C  0.54861374  0.88263265  0.46204952     0.27800
C596        C  0.55641503  0.89604439  0.44949730    -0.12700
C597        C  0.54977631  0.90393835  0.44302220     0.05900
C598        C  0.53515253  0.89821308  0.44818756    -0.08600
C599        C  0.52724728  0.88451310  0.45977582     0.06700
C600        C  0.53402621  0.87686943  0.46710078    -0.13000
Br601      Br  0.56395984  0.89170913  0.01915936    -0.05100
Br602      Br  0.55897208  0.84060614  0.43667480     0.00600
Br603      Br  0.56067698  0.92236015  0.42607798     0.01000
Br604      Br  0.52342136  0.85853139  0.48450981    -0.03400
Br605      Br  0.58078862  0.87430503  0.03577769     0.01100
Br606      Br  0.54505507  0.86034531  0.41768963    -0.02700
Br607      Br  0.57615313  0.90341071  0.44076350    -0.03500
Br608      Br  0.50722641  0.87633389  0.46683568     0.00400
C609        C  0.44498954  0.91332533  0.11737550     0.01800
C610        C  0.43835524  0.90661283  0.09245937     0.04700
C611        C  0.44655653  0.90619247  0.07060681    -0.11400
C612        C  0.46137956  0.91266524  0.07334397     0.24000
C613        C  0.46796693  0.91893874  0.09836764    -0.12000
C614        C  0.45981485  0.91918246  0.12042013     0.05400
C615        C  0.47017359  0.91381449  0.04929406     0.27800
C616        C  0.47361740  0.90320802  0.04395580    -0.12700
C617        C  0.48205426  0.90445236  0.02111349     0.05900
C618        C  0.48716037  0.91640288  0.00370920    -0.08600
C619        C  0.48359875  0.92696815  0.00907624     0.06700
C620        C  0.47522157  0.92571698  0.03193354    -0.13000
Br621      Br  0.48829494  0.92762124  0.10194428    -0.05100
Br622      Br  0.41828005  0.89909087  0.08698873     0.00600
Br623      Br  0.48713810  0.89011735  0.01460252     0.01000
Br624      Br  0.47080760  0.94043455  0.03990015    -0.03400
Br625      Br  0.46915167  0.92744337  0.15482704     0.01100
Br626      Br  0.43765041  0.89724674  0.03636266    -0.02700
Br627      Br  0.46706768  0.88723754  0.06855036    -0.03500
Br628      Br  0.48957186  0.94287294  0.48444253     0.00400
C629        C  0.44246148  0.91486845  0.25392111     0.01800
C630        C  0.44164033  0.92012191  0.27990994     0.04700
C631        C  0.44966250  0.91955737  0.30204340    -0.11400
C632        C  0.45856666  0.91379548  0.29833299     0.24000
C633        C  0.45903101  0.90807651  0.27275877    -0.12000
C634        C  0.45097780  0.90855959  0.25058096     0.05400
C635        C  0.46819331  0.91466792  0.32076120     0.27800
C636        C  0.48143285  0.92714802  0.32393914    -0.12700
C637        C  0.49049266  0.92826907  0.34557338     0.05900
C638        C  0.48649328  0.91676985  0.36366905    -0.08600
C639        C  0.47341402  0.90415491  0.36011537     0.06700
C640        C  0.46416936  0.90317701  0.33889379    -0.13000
Br641      Br  0.47121401  0.90011135  0.26801108    -0.05100
Br642      Br  0.42927094  0.92779678  0.28557391     0.00600
Br643      Br  0.50848820  0.94551997  0.35025493     0.01000
Br644      Br  0.44582675  0.88632771  0.33506212    -0.03400
Br645      Br  0.45255597  0.90146055  0.21528112     0.01100
Br646      Br  0.44874859  0.92694270  0.33745755    -0.02700
Br647      Br  0.48706277  0.94273111  0.29864199    -0.03500
Br648      Br  0.46794274  0.88848850  0.38506901     0.00400
C649        C  0.30216478  0.85691252  0.22563969     0.01800
C650        C  0.30889264  0.84959611  0.21580749     0.04700
C651        C  0.32347487  0.85712850  0.20949382    -0.11400
C652        C  0.33145299  0.87191732  0.21370269     0.24000
C653        C  0.32477926  0.87917505  0.22392928    -0.12000
C654        C  0.31016348  0.87172742  0.22963981     0.05400
C655        C  0.34689217  0.87988228  0.20762771     0.27800
C656        C  0.35665079  0.88006890  0.22691097    -0.12700
C657        C  0.37129895  0.88789996  0.22151050     0.05900
C658        C  0.37626727  0.89577746  0.19699972    -0.08600
C659        C  0.36651143  0.89562122  0.17772790     0.06700
C660        C  0.35184728  0.88761780  0.18296366    -0.13000
Br661      Br  0.33574526  0.89937408  0.23018509    -0.05100
Br662      Br  0.29806294  0.82936753  0.20979640     0.00600
Br663      Br  0.38453672  0.88734286  0.24719733     0.01000
Br664      Br  0.33849386  0.88738235  0.15657614    -0.03400
Br665      Br  0.30123606  0.88181639  0.24401362     0.01100
Br666      Br  0.33252587  0.84731363  0.19440204    -0.02700
Br667      Br  0.34990865  0.86974253  0.26093330    -0.03500
Br668      Br  0.37325317  0.90698167  0.14483339     0.00400
C669        C  0.19005234  0.41159461  0.31338661     0.01800
C670        C  0.18464117  0.40148485  0.33477618     0.04700
C671        C  0.19362858  0.40194566  0.35598493    -0.11400
C672        C  0.20804627  0.41255212  0.35605846     0.24000
C673        C  0.21341956  0.42286573  0.33511447    -0.12000
C674        C  0.20443156  0.42241665  0.31380039     0.05400
C675        C  0.21742724  0.41280045  0.37843007     0.27800
C676        C  0.21807953  0.41958174  0.40338591    -0.12700
C677        C  0.22575853  0.41857312  0.42565805     0.05900
C678        C  0.23280938  0.41075141  0.42305908    -0.08600
C679        C  0.23275593  0.40457446  0.39761251     0.06700
C680        C  0.22499125  0.40552882  0.37537726    -0.13000
Br681      Br  0.23317355  0.43738507  0.33551476    -0.05100
Br682      Br  0.16475022  0.38725062  0.33566784     0.00600
Br683      Br  0.22703254  0.42837679  0.45941740     0.01000
Br684      Br  0.22425755  0.39647528  0.34094999    -0.03400
Br685      Br  0.21203324  0.43617154  0.28451031     0.01100
Br686      Br  0.18626950  0.38794366  0.38494141    -0.02700
Br687      Br  0.20817219  0.43001143  0.40706819    -0.03500
Br688      Br  0.24264804  0.39414483  0.39354496     0.00400
C689        C  0.23442455  0.41536245  0.06412407     0.01800
C690        C  0.22017926  0.41188889  0.06031933     0.04700
C691        C  0.21221294  0.41211198  0.08272271    -0.11400
C692        C  0.21836961  0.41570222  0.10902359     0.24000
C693        C  0.23266412  0.41951327  0.11280970    -0.12000
C694        C  0.24070062  0.41936242  0.09038130     0.05400
C695        C  0.20940576  0.41448810  0.13283473     0.27800
C696        C  0.20873517  0.42636694  0.14199444    -0.12700
C697        C  0.19935571  0.42489370  0.16325441     0.05900
C698        C  0.19051435  0.41143533  0.17534608    -0.08600
C699        C  0.19138903  0.39957154  0.16618546     0.06700
C700        C  0.20085216  0.40114656  0.14510125    -0.13000
Br701      Br  0.24099231  0.42441133  0.14896234    -0.05100
Br702      Br  0.21098415  0.40545544  0.02510831     0.00600
Br703      Br  0.19817354  0.44126378  0.17436526     0.01000
Br704      Br  0.20212494  0.38499362  0.13262651    -0.03400
Br705      Br  0.26032126  0.42472270  0.09565968     0.01100
Br706      Br  0.19254782  0.40675730  0.07786085    -0.02700
Br707      Br  0.22050973  0.44456268  0.12474029    -0.03500
Br708      Br  0.18012026  0.38112739  0.18293637     0.00400
C709        C  0.13901489  0.42774059  0.22728416     0.01800
C710        C  0.14654603  0.44256338  0.22295392     0.04700
C711        C  0.13920482  0.44973056  0.21612043    -0.11400
C712        C  0.12432324  0.44215367  0.21347406     0.24000
C713        C  0.11675957  0.42740695  0.21806615    -0.12000
C714        C  0.12405934  0.42021656  0.22501814     0.05400
C715        C  0.11660216  0.44974216  0.20628012     0.27800
C716        C  0.11200234  0.45537975  0.22719610    -0.12700
C717        C  0.10481844  0.46270933  0.22048155     0.05900
C718        C  0.10234198  0.46458051  0.19272383    -0.08600
C719        C  0.10673150  0.45870217  0.17181599     0.06700
C720        C  0.11379272  0.45124836  0.17860376    -0.13000
Br721      Br  0.09633695  0.41714465  0.21494756    -0.05100
Br722      Br  0.16699681  0.45303888  0.22493900     0.00600
Br723      Br  0.09878444  0.47054396  0.24944040     0.01000
Br724      Br  0.11941134  0.44282456  0.15011011    -0.03400
Br725      Br  0.11338050  0.40017436  0.23277406     0.01100
Br726      Br  0.14949050  0.46997026  0.21018439    -0.02700
Br727      Br  0.11558037  0.45298135  0.26508464    -0.03500
Br728      Br  0.10232878  0.46011690  0.13396324     0.00400
C729        C  0.18941733  0.76445357  0.41728493     0.01800
C730        C  0.19070453  0.77742101  0.40850615     0.04700
C731        C  0.19983707  0.78502175  0.38670966    -0.11400
C732        C  0.20748065  0.77958296  0.37309400     0.24000
C733        C  0.20583596  0.76641552  0.38112455    -0.12000
C734        C  0.19693692  0.75891913  0.40332814     0.05400
C735        C  0.21689679  0.78762068  0.34981334     0.27800
C736        C  0.21094135  0.78714453  0.32388966    -0.12700
C737        C  0.21947614  0.79608711  0.30265865     0.05900
C738        C  0.23420052  0.80512915  0.30688496    -0.08600
C739        C  0.24028756  0.80502207  0.33241657     0.06700
C740        C  0.23161842  0.79640913  0.35394132    -0.13000
Br741      Br  0.21557546  0.75856958  0.36117929    -0.05100
Br742      Br  0.18042725  0.78520036  0.42682211     0.00600
Br743      Br  0.21057391  0.79678326  0.26876112     0.01000
Br744      Br  0.23983204  0.79685828  0.38930235    -0.03400
Br745      Br  0.19450557  0.74069180  0.41350350     0.01100
Br746      Br  0.20201082  0.80302887  0.37550307    -0.02700
Br747      Br  0.19094210  0.77439599  0.31778686    -0.03500
Br748      Br  0.26053462  0.81638772  0.33775716     0.00400
C749        C  0.23456792  0.80908862  0.16986227     0.01800
C750        C  0.23994925  0.80197382  0.15411325     0.04700
C751        C  0.23161235  0.79258340  0.13314884    -0.11400
C752        C  0.21812197  0.79068040  0.12717874     0.24000
C753        C  0.21279065  0.79786663  0.14266053    -0.12000
C754        C  0.22087183  0.80686040  0.16424647     0.05400
C755        C  0.20992584  0.78196584  0.10333452     0.27800
C756        C  0.21177649  0.78848017  0.07755888    -0.12700
C757        C  0.20333375  0.78065844  0.05516101     0.05900
C758        C  0.19304496  0.76611811  0.05835658    -0.08600
C759        C  0.19150030  0.75951702  0.08417204     0.06700
C760        C  0.19993226  0.76745903  0.10658041    -0.13000
Br761      Br  0.19443540  0.79549486  0.13391621    -0.05100
Br762      Br  0.25908374  0.80579412  0.15979496     0.00600
Br763      Br  0.20624287  0.79008654  0.02013156     0.01000
Br764      Br  0.19762709  0.75864028  0.14203635    -0.03400
Br765      Br  0.21275396  0.81551948  0.18685300     0.01100
Br766      Br  0.23864394  0.78240308  0.11221112    -0.02700
Br767      Br  0.22588480  0.80828965  0.07325371    -0.03500
Br768      Br  0.17715463  0.73991151  0.08979960     0.00400
C769        C  0.08867855  0.56089640  0.99919062     0.01800
C770        C  0.10228132  0.56510759  0.00999414     0.04700
C771        C  0.10369033  0.55813646  0.03314444    -0.11400
C772        C  0.09155364  0.54691982  0.04545907     0.24000
C773        C  0.07797353  0.54299574  0.03523214    -0.12000
C774        C  0.07651966  0.54983724  0.01201677     0.05400
C775        C  0.09291161  0.53830443  0.06759267     0.27800
C776        C  0.09153509  0.52508668  0.06100972    -0.12700
C777        C  0.09050622  0.51573707  0.08200484     0.05900
C778        C  0.09129758  0.51977490  0.10976417    -0.08600
C779        C  0.09360064  0.53341615  0.11623618     0.06700
C780        C  0.09423579  0.54259338  0.09518587    -0.13000
Br781      Br  0.06134212  0.52783323  0.05268493    -0.05100
Br782      Br  0.11904062  0.58052462  0.99347878     0.00600
Br783      Br  0.08654493  0.49691039  0.07242619     0.01000
Br784      Br  0.09629763  0.56078696  0.10408151    -0.03400
Br785      Br  0.05785429  0.54300677  0.49650964     0.01100
Br786      Br  0.12222153  0.56374477  0.04786315    -0.02700
Br787      Br  0.09030337  0.51956542  0.02299911    -0.03500
Br788      Br  0.09599439  0.53963161  0.15394896     0.00400
C789        C  0.08669258  0.51332544  0.24800541     0.01800
C790        C  0.07494160  0.51297975  0.26117408     0.04700
C791        C  0.07707948  0.52182073  0.28385669    -0.11400
C792        C  0.09090525  0.53146303  0.29297215     0.24000
C793        C  0.10261849  0.53173974  0.28032420    -0.12000
C794        C  0.10053949  0.52251480  0.25830802     0.05400
C795        C  0.09290352  0.54147956  0.31548868     0.27800
C796        C  0.09241545  0.55389938  0.30962758    -0.12700
C797        C  0.09185369  0.56220820  0.33113529     0.05900
C798        C  0.09166391  0.55803623  0.35867356    -0.08600
C799        C  0.09290502  0.54598413  0.36448164     0.06700
C800        C  0.09371817  0.53785120  0.34290974    -0.13000
Br801      Br  0.12151927  0.54490007  0.29319087    -0.05100
Br802      Br  0.05583682  0.50120094  0.24760037     0.00600
Br803      Br  0.09000954  0.57851849  0.32252430     0.01000
Br804      Br  0.09557837  0.52149462  0.35077528    -0.03400
Br805      Br  0.11677159  0.52210923  0.24358210     0.01100
Br806      Br  0.06103414  0.52092310  0.30257702    -0.02700
Br807      Br  0.09183389  0.55908547  0.27194262    -0.03500
Br808      Br  0.09340774  0.54047518  0.40199440     0.00400
C809        C  0.14400673  0.69855574  0.47176072     0.01800
C810        C  0.15218588  0.69262881  0.46251299     0.04700
C811        C  0.14549513  0.67821035  0.45503490    -0.11400
C812        C  0.13065781  0.66965075  0.45699650     0.24000
C813        C  0.12246658  0.67555120  0.46596661    -0.12000
C814        C  0.12911174  0.68994045  0.47349626     0.05400
C815        C  0.12361692  0.65429303  0.45058529     0.27800
C816        C  0.11870439  0.64944165  0.42383121    -0.12700
C817        C  0.11117278  0.63478595  0.41825457     0.05900
C818        C  0.10847880  0.62491654  0.43953632    -0.08600
C819        C  0.11372651  0.62985755  0.46622940     0.06700
C820        C  0.12130962  0.64451414  0.47166453    -0.13000
Br821      Br  0.10208195  0.66380879  0.46776139    -0.05100
Br822      Br  0.17249155  0.70430737  0.45893478     0.00600
Br823      Br  0.10379512  0.62834658  0.38179774     0.01000
Br824      Br  0.12848029  0.65133266  0.00809557    -0.03400
Br825      Br  0.11778555  0.69756334  0.48765577     0.01100
Br826      Br  0.15652886  0.67011988  0.44159852    -0.02700
Br827      Br  0.12203783  0.66297210  0.39508133    -0.03500
Br828      Br  0.11097236  0.61666060  0.99536251     0.00400
C829        C  0.96692381  0.42558121  0.09591070     0.01800
C830        C  0.97608450  0.42277597  0.08015500     0.04700
C831        C  0.99033794  0.42840642  0.08815224    -0.11400
C832        C  0.99552280  0.43701208  0.11168763     0.24000
C833        C  0.98630784  0.43954717  0.12780379    -0.12000
C834        C  0.97202845  0.43380868  0.12003609     0.05400
C835        C  0.01077913  0.44400911  0.11908732     0.27800
C836        C  0.01530504  0.43854339  0.14058758    -0.12700
C837        C  0.02927677  0.44642062  0.15062765     0.05900
C838        C  0.03882877  0.45965315  0.13881335    -0.08600
C839        C  0.03456915  0.46463793  0.11600313     0.06700
C840        C  0.02053391  0.45686079  0.10627546    -0.13000
Br841      Br  0.99345977  0.45136294  0.16008594    -0.05100
Br842      Br  0.96904786  0.41095682  0.04793079     0.00600
Br843      Br  0.03539421  0.43901991  0.18033610     0.01000
Br844      Br  0.01444411  0.46409045  0.07614428    -0.03400
Br845      Br  0.95983560  0.43817203  0.14156075     0.01100
Br846      Br  0.00286459  0.42450400  0.06682286    -0.02700
Br847      Br  0.00218519  0.42039248  0.15653289    -0.03500
Br848      Br  0.04760902  0.48261509  0.09921531     0.00400
C849        C  0.90217656  0.36883843  0.04930576     0.01800
C850        C  0.89910410  0.36468419  0.02147212     0.04700
C851        C  0.89210773  0.35019465  0.01433859    -0.11400
C852        C  0.88781606  0.33975132  0.03493689     0.24000
C853        C  0.89073066  0.34384223  0.06267437    -0.12000
C854        C  0.89801354  0.35831735  0.06984951     0.05400
C855        C  0.88027442  0.32442410  0.02762336     0.27800
C856        C  0.86552492  0.31713682  0.02294821    -0.12700
C857        C  0.85823052  0.30243339  0.01771096     0.05900
C858        C  0.86563834  0.29485801  0.01758574    -0.08600
C859        C  0.88047245  0.30225202  0.02195377     0.06700
C860        C  0.88775562  0.31699767  0.02669539    -0.13000
Br861      Br  0.88477780  0.32947617  0.09082548    -0.05100
Br862      Br  0.90376046  0.37870689  0.49296438     0.00600
Br863      Br  0.83791447  0.29265159  0.01253374     0.01000
Br864      Br  0.90803758  0.32713577  0.03223565    -0.03400
Br865      Br  0.90298258  0.36359392  0.10776572     0.01100
Br866      Br  0.88845887  0.34456824  0.47629623    -0.02700
Br867      Br  0.85526649  0.32729940  0.02473150    -0.03500
Br868      Br  0.89103075  0.29237933  0.02071820     0.00400
C869        C  0.92071392  0.48015366  0.24686447     0.01800
C870        C  0.93252158  0.47922227  0.23774195     0.04700
C871        C  0.93124919  0.47086508  0.21476617    -0.11400
C872        C  0.91810429  0.46305353  0.20127895     0.24000
C873        C  0.90630067  0.46389697  0.21031571    -0.12000
C874        C  0.90759196  0.47247627  0.23296361     0.05400
C875        C  0.91671206  0.45372763  0.17792129     0.27800
C876        C  0.91901479  0.45903564  0.15094400    -0.12700
C877        C  0.91878660  0.45054961  0.12900936     0.05900
C878        C  0.91655177  0.43677256  0.13406288    -0.08600
C879        C  0.91380340  0.43133213  0.16109888     0.06700
C880        C  0.91376581  0.43976844  0.18289262    -0.13000
Br881      Br  0.88837876  0.45321980  0.19150119    -0.05100
Br882      Br  0.95020139  0.48840533  0.25785105     0.00600
Br883      Br  0.92132214  0.45787515  0.09204586     0.01000
Br884      Br  0.91023094  0.43246462  0.21990067    -0.03400
Br885      Br  0.89141934  0.47396536  0.24419545     0.01100
Br886      Br  0.94749465  0.46997252  0.20169644    -0.02700
Br887      Br  0.92297210  0.47816468  0.14433354    -0.03500
Br888      Br  0.91133821  0.41284941  0.16901404     0.00400
C889        C  0.91713734  0.43397998  0.49832395     0.01800
C890        C  0.90744257  0.43899080  0.50029463     0.04700
C891        C  0.90615678  0.44679196  0.47855951    -0.11400
C892        C  0.91430764  0.44939972  0.45466302     0.24000
C893        C  0.92348417  0.44388889  0.45210760    -0.12000
C894        C  0.92503253  0.43632610  0.47396530     0.05400
C895        C  0.91405293  0.45884747  0.43306664     0.27800
C896        C  0.90489492  0.45315756  0.41035403    -0.12700
C897        C  0.90521474  0.46220332  0.38936935     0.05900
C898        C  0.91488089  0.47691801  0.39083616    -0.08600
C899        C  0.92364189  0.48265315  0.41417269     0.06700
C900        C  0.92324193  0.47360551  0.43519459    -0.13000
Br901      Br  0.93411175  0.44696235  0.41868780    -0.05100
Br902      Br  0.89654189  0.43615836  0.03328739     0.00600
Br903      Br  0.89210470  0.45451626  0.35901861     0.01000
Br904      Br  0.93575078  0.48129357  0.46647434    -0.03400
Br905      Br  0.93785077  0.42903356  0.47002109     0.01100
Br906      Br  0.89364749  0.45446525  0.48173604    -0.02700
Br907      Br  0.89232001  0.43293243  0.40765885    -0.03500
Br908      Br  0.93691386  0.50277179  0.41676166     0.00400
C909        C  0.96844600  0.53147354  0.35076521     0.01800
C910        C  0.97493699  0.52433705  0.36282483     0.04700
C911        C  0.98871519  0.53212421  0.37372523    -0.11400
C912        C  0.99606638  0.54705476  0.37277125     0.24000
C913        C  0.98946259  0.55422261  0.36163314    -0.12000
C914        C  0.97569327  0.54645814  0.35050965     0.05400
C915        C  0.01111686  0.55504929  0.38162112     0.27800
C916        C  0.01463306  0.55870993  0.40937691    -0.12700
C917        C  0.02880429  0.56460259  0.41817325     0.05900
C918        C  0.03956790  0.56721501  0.39903827    -0.08600
C919        C  0.03607158  0.56418126  0.37097407     0.06700
C920        C  0.02185888  0.55797409  0.36239413    -0.13000
Br921      Br  0.99946939  0.57468637  0.36133856    -0.05100
Br922      Br  0.96486119  0.50387121  0.36544511     0.00600
Br923      Br  0.03340349  0.56910965  0.45646649     0.01000
Br924      Br  0.01687787  0.55270911  0.32443861    -0.03400
Br925      Br  0.96721353  0.55640713  0.33338123     0.01100
Br926      Br  0.99769796  0.52237947  0.38976815    -0.02700
Br927      Br  0.99990854  0.55529984  0.43529819    -0.03500
Br928      Br  0.05045588  0.56733321  0.34435647     0.00400
C929        C  0.86163056  0.55992941  0.26895028     0.01800
C930        C  0.85444933  0.54504952  0.27270788     0.04700
C931        C  0.86219671  0.53811078  0.27787258    -0.11400
C932        C  0.87711951  0.54593701  0.27888321     0.24000
C933        C  0.88432367  0.56065466  0.27397098    -0.12000
C934        C  0.87662523  0.56764969  0.26905611     0.05400
C935        C  0.88525731  0.53878382  0.28599989     0.27800
C936        C  0.88803785  0.53736575  0.31372554    -0.12700
C937        C  0.89587128  0.53073306  0.32063971     0.05900
C938        C  0.90100154  0.52552267  0.29979765    -0.08600
C939        C  0.89827340  0.52702583  0.27201057     0.06700
C940        C  0.89039529  0.53362651  0.26515593    -0.13000
Br941      Br  0.90479980  0.57118189  0.27426255    -0.05100
Br942      Br  0.83399557  0.53413163  0.27217068     0.00600
Br943      Br  0.90020703  0.52951299  0.35863538     0.01000
Br944      Br  0.88660631  0.53567067  0.22723029    -0.03400
Br945      Br  0.88674212  0.58773885  0.26124167     0.01100
Br946      Br  0.85244733  0.51789509  0.28429053    -0.02700
Br947      Br  0.88125779  0.54476904  0.34214857    -0.03500
Br948      Br  0.90482667  0.51955492  0.24328319     0.00400
C949        C  0.80858475  0.57613823  0.19418298     0.01800
C950        C  0.81248936  0.57534486  0.16688854     0.04700
C951        C  0.80407093  0.57528756  0.14483723    -0.11400
C952        C  0.79195422  0.57644087  0.14982381     0.24000
C953        C  0.78797909  0.57712324  0.17699516    -0.12000
C954        C  0.79613749  0.57676895  0.19910024     0.05400
C955        C  0.78380005  0.57758483  0.12641004     0.27800
C956        C  0.78917006  0.59052366  0.11210636    -0.12700
C957        C  0.78201776  0.59146878  0.08884326     0.05900
C958        C  0.76892385  0.57970352  0.08072050    -0.08600
C959        C  0.76331812  0.56685964  0.09564662     0.06700
C960        C  0.77087521  0.56575131  0.11811713    -0.13000
Br961      Br  0.77160183  0.57906794  0.18385987    -0.05100
Br962      Br  0.83001626  0.57564564  0.15924719     0.00600
Br963      Br  0.79088511  0.60862103  0.06704441     0.01000
Br964      Br  0.76353072  0.54802560  0.13770654    -0.03400
Br965      Br  0.78998648  0.57688698  0.23613507     0.01100
Br966      Br  0.80934452  0.57408972  0.10756019    -0.02700
Br967      Br  0.80630868  0.60704792  0.12469352    -0.03500
Br968      Br  0.74499335  0.55090443  0.08635294     0.00400
C969        C  0.76637517  0.57518092  0.43893270     0.01800
C970        C  0.77079269  0.56503718  0.44037928     0.04700
C971        C  0.77863808  0.56381125  0.41874928    -0.11400
C972        C  0.78249906  0.57302625  0.39605067     0.24000
C973        C  0.77777158  0.58289934  0.39421045    -0.12000
C974        C  0.76963360  0.58391730  0.41550744     0.05400
C975        C  0.79220780  0.57295891  0.37482362     0.27800
C976        C  0.80697665  0.58140135  0.37840922    -0.12700
C977        C  0.81625760  0.58240826  0.35734605     0.05900
C978        C  0.81079463  0.57497404  0.33240769    -0.08600
C979        C  0.79594206  0.56587033  0.32958962     0.06700
C980        C  0.78671961  0.56492809  0.35074359    -0.13000
Br981      Br  0.78292866  0.59536612  0.36283616    -0.05100
Br982      Br  0.76610980  0.55280305  0.47200373     0.00600
Br983      Br  0.83646445  0.59357944  0.36345602     0.01000
Br984      Br  0.76645385  0.55289072  0.34673785    -0.03400
Br985      Br  0.76397554  0.59809658  0.41344725     0.01100
Br986      Br  0.78427728  0.54963818  0.42015398    -0.02700
Br987      Br  0.81439894  0.59172819  0.41227811    -0.03500
Br988      Br  0.78786218  0.55517616  0.29638107     0.00400
C989        C  0.70267443  0.55966887  0.03131574     0.01800
C990        C  0.69669474  0.54541442  0.03997909     0.04700
C991        C  0.68225742  0.53755787  0.04719562    -0.11400
C992        C  0.67373426  0.54387196  0.04566892     0.24000
C993        C  0.67970650  0.55813002  0.03743103    -0.12000
C994        C  0.69414554  0.56604987  0.03040228     0.05400
C995        C  0.65835117  0.53547041  0.05180695     0.27800
C996        C  0.64871501  0.52765115  0.03076599    -0.12700
C997        C  0.63403364  0.52052143  0.03582257     0.05900
C998        C  0.62889431  0.52122796  0.06203294    -0.08600
C999        C  0.63862300  0.52892623  0.08323192     0.06700
C1000       C  0.65331571  0.53596005  0.07811527    -0.13000
Br1001     Br  0.66791568  0.56667969  0.03535205    -0.05100
Br1002     Br  0.70838638  0.53680006  0.54339896     0.00600
Br1003     Br  0.62110534  0.50938982  0.00687184     0.01000
Br1004     Br  0.66665774  0.54653675  0.10691060    -0.03400
Br1005     Br  0.70192483  0.58544567  0.01832026     0.01100
Br1006     Br  0.67407754  0.51813833  0.05928391    -0.02700
Br1007     Br  0.65577535  0.52689285  0.49490384    -0.03500
Br1008     Br  0.63195603  0.53072855  0.11882847     0.00400
C1009       C  0.57123628  0.53049199  0.10025987     0.01800
C1010       C  0.57927188  0.54131071  0.11953193     0.04700
C1011       C  0.57407342  0.54991485  0.12976360    -0.11400
C1012       C  0.56097894  0.54796995  0.12047827     0.24000
C1013       C  0.55324704  0.53766094  0.10036514    -0.12000
C1014       C  0.55820142  0.52877709  0.09059449     0.05400
C1015       C  0.55449208  0.55557333  0.13391011     0.27800
C1016       C  0.54555221  0.54931585  0.15666379    -0.12700
C1017       C  0.53801608  0.55547878  0.16782055     0.05900
C1018       C  0.53932338  0.56799115  0.15605323    -0.08600
C1019       C  0.54906187  0.57475047  0.13437344     0.06700
C1020       C  0.55656852  0.56850457  0.12328544    -0.13000
Br1021     Br  0.53547202  0.53535856  0.08719757    -0.05100
Br1022     Br  0.59750715  0.54456117  0.13191852     0.00600
Br1023     Br  0.52524857  0.54595673  0.19804240     0.01000
Br1024     Br  0.56947756  0.57742052  0.09311673    -0.03400
Br1025     Br  0.54622896  0.51336425  0.06621603     0.01100
Br1026     Br  0.58457328  0.56407390  0.15731612    -0.02700
Br1027     Br  0.54321114  0.53184218  0.17173889    -0.03500
Br1028     Br  0.55256220  0.59281843  0.12030901     0.00400
C1029       C  0.52118038  0.43071739  0.25788263     0.01800
C1030       C  0.52834501  0.42494906  0.24347427     0.04700
C1031       C  0.53711371  0.43237039  0.22113072    -0.11400
C1032       C  0.53883165  0.44558195  0.21329390     0.24000
C1033       C  0.53200150  0.45152584  0.22804765    -0.12000
C1034       C  0.52327778  0.44417238  0.25042513     0.05400
C1035       C  0.54746612  0.45311517  0.18899795     0.27800
C1036       C  0.56177931  0.46369463  0.19217325    -0.12700
C1037       C  0.56955464  0.47184110  0.16941882     0.05900
C1038       C  0.56295573  0.46936182  0.14338733    -0.08600
C1039       C  0.54887073  0.45810302  0.14004571     0.06700
C1040       C  0.54109316  0.45015823  0.16288700    -0.13000
Br1041     Br  0.53448172  0.46969851  0.21718346    -0.05100
Br1042     Br  0.52573123  0.40661732  0.25332811     0.00600
Br1043     Br  0.58886461  0.48695597  0.17472245     0.01000
Br1044     Br  0.52145435  0.43561023  0.15877056    -0.03400
Br1045     Br  0.51488692  0.45299985  0.27166142     0.01100
Br1046     Br  0.54653000  0.42435660  0.20064551    -0.02700
Br1047     Br  0.57041179  0.46742227  0.22811185    -0.03500
Br1048     Br  0.54024258  0.45319306  0.10406343     0.00400
C1049       C  0.56087722  0.47028556  0.50816184     0.01800
C1050       C  0.54634538  0.46572923  0.50449709     0.04700
C1051       C  0.53884555  0.45700207  0.48217269    -0.11400
C1052       C  0.54568151  0.45242922  0.46381262     0.24000
C1053       C  0.56003476  0.45653146  0.46790831    -0.12000
C1054       C  0.56764793  0.46546605  0.49000538     0.05400
C1055       C  0.53785156  0.44385465  0.43952963     0.27800
C1056       C  0.52812420  0.42923139  0.44228666    -0.12700
C1057       C  0.51936265  0.42152021  0.42004810     0.05900
C1058       C  0.52077907  0.42832512  0.39453577    -0.08600
C1059       C  0.53129652  0.44277637  0.39139758     0.06700
C1060       C  0.53951700  0.45057289  0.41400834    -0.13000
Br1061     Br  0.56930497  0.45020742  0.44260426    -0.05100
Br1062     Br  0.53638253  0.47078734  0.53076253     0.00600
Br1063     Br  0.50473423  0.40202440  0.42562875     0.01000
Br1064     Br  0.55274973  0.47065802  0.41034335    -0.03400
Br1065     Br  0.58751484  0.47160968  0.99429259     0.01100
Br1066     Br  0.51924479  0.45160938  0.47616717    -0.02700
Br1067     Br  0.52660839  0.41993728  0.47691595    -0.03500
Br1068     Br  0.53494796  0.45199650  0.35596316     0.00400
C1069       C  0.46379081  0.42310841  0.34846281     0.01800
C1070       C  0.45253621  0.41620754  0.36743053     0.04700
C1071       C  0.44569660  0.42327398  0.37783058    -0.11400
C1072       C  0.45006556  0.43724690  0.36948600     0.24000
C1073       C  0.46091792  0.44400208  0.34996118    -0.12000
C1074       C  0.46771525  0.43697183  0.33930695     0.05400
C1075       C  0.44349178  0.44503218  0.38168228     0.27800
C1076       C  0.43115182  0.44387012  0.36999900    -0.12700
C1077       C  0.42509702  0.45152305  0.38111947     0.05900
C1078       C  0.43165620  0.46080798  0.40365749    -0.08600
C1079       C  0.44409650  0.46187623  0.41535583     0.06700
C1080       C  0.44988620  0.45392785  0.40444812    -0.13000
Br1081     Br  0.46675737  0.46318073  0.33862281    -0.05100
Br1082     Br  0.44605207  0.39691088  0.37868134     0.00600
Br1083     Br  0.40752081  0.44867778  0.36553968     0.01000
Br1084     Br  0.46699836  0.45557223  0.41990958    -0.03400
Br1085     Br  0.48300244  0.44701704  0.31350007     0.01100
Br1086     Br  0.43043638  0.41399232  0.40392270    -0.02700
Br1087     Br  0.42285005  0.43204134  0.33807821    -0.03500
Br1088     Br  0.45407488  0.47486499  0.44506484     0.00400
C1089       C  0.43690386  0.29060242  0.26064458     0.01800
C1090       C  0.43759166  0.30102583  0.24246236     0.04700
C1091       C  0.44433242  0.31534900  0.25071205    -0.11400
C1092       C  0.45032650  0.31925287  0.27716997     0.24000
C1093       C  0.44954640  0.30883111  0.29536004    -0.12000
C1094       C  0.44295941  0.29456659  0.28707721     0.05400
C1095       C  0.45744468  0.33429666  0.28612233     0.27800
C1096       C  0.47227813  0.34287471  0.28393264    -0.12700
C1097       C  0.47911875  0.35701217  0.29327443     0.05900
C1098       C  0.47110923  0.36263066  0.30494135    -0.08600
C1099       C  0.45626466  0.35388573  0.30758154     0.06700
C1100       C  0.44946621  0.33978303  0.29811012    -0.13000
Br1101     Br  0.45738158  0.31417426  0.33184367    -0.05100
Br1102     Br  0.42861255  0.29559718  0.20690332     0.00600
Br1103     Br  0.49938507  0.36872167  0.28880685     0.01000
Br1104     Br  0.42920578  0.32779582  0.30190936    -0.03400
Br1105     Br  0.44276469  0.28055476  0.31171783     0.01100
Br1106     Br  0.44514166  0.32963016  0.22609501    -0.02700
Br1107     Br  0.48315707  0.33511851  0.26809636    -0.03500
Br1108     Br  0.44525668  0.36089673  0.32563010     0.00400
C1109       C  0.42260528  0.22276491  0.17490624     0.01800
C1110       C  0.41821424  0.20822528  0.17864835     0.04700
C1111       C  0.41785478  0.19993026  0.15626397    -0.11400
C1112       C  0.42198458  0.20605833  0.13007373     0.24000
C1113       C  0.42706383  0.22064896  0.12643217    -0.12000
C1114       C  0.42739406  0.22902084  0.14873878     0.05400
C1115       C  0.42022550  0.19692828  0.10614015     0.27800
C1116       C  0.43085965  0.19370938  0.09951120    -0.12700
C1117       C  0.42891060  0.18464087  0.07735261     0.05900
C1118       C  0.41630197  0.17877992  0.06169143    -0.08600
C1119       C  0.40563217  0.18199890  0.06844435     0.06700
C1120       C  0.40761734  0.19106626  0.09061110    -0.13000
Br1121     Br  0.43300560  0.22893868  0.09042047    -0.05100
Br1122     Br  0.41285940  0.19945245  0.21442940     0.00600
Br1123     Br  0.44322646  0.17967029  0.06949397     0.01000
Br1124     Br  0.39308518  0.19554678  0.09984880    -0.03400
Br1125     Br  0.43342932  0.24875243  0.14242670     0.01100
Br1126     Br  0.41126260  0.17996010  0.16109272    -0.02700
Br1127     Br  0.44801147  0.20164833  0.12111212    -0.03500
Br1128     Br  0.38851338  0.17455533  0.04672441     0.00400
C1129       C  0.42334154  0.22658140  0.31231671     0.01800
C1130       C  0.43036574  0.21874419  0.30912554     0.04700
C1131       C  0.43108125  0.21078688  0.33123631    -0.11400
C1132       C  0.42473754  0.21056513  0.35649117     0.24000
C1133       C  0.41832729  0.21890601  0.36010052    -0.12000
C1134       C  0.41769993  0.22696844  0.33812796     0.05400
C1135       C  0.42350642  0.20049694  0.37831842     0.27800
C1136       C  0.41185278  0.18655140  0.37803021    -0.12700
C1137       C  0.41001043  0.17711956  0.39946992     0.05900
C1138       C  0.41995556  0.18152778  0.42107988    -0.08600
C1139       C  0.43176158  0.19541280  0.42111793     0.06700
C1140       C  0.43354717  0.20488686  0.39971918    -0.13000
Br1141     Br  0.40981858  0.21872044  0.39488073    -0.05100
Br1142     Br  0.43794854  0.21780389  0.27395266     0.00600
Br1143     Br  0.39326834  0.15852323  0.40024290     0.01000
Br1144     Br  0.44962809  0.22390294  0.39968042    -0.03400
Br1145     Br  0.40923160  0.23866860  0.34360882     0.01100
Br1146     Br  0.44005577  0.19951537  0.32666962    -0.02700
Br1147     Br  0.39825842  0.18052743  0.34837875    -0.03500
Br1148     Br  0.44556230  0.20137128  0.45032272     0.00400
C1149       C  0.43496375  0.13196434  0.01180538     0.01800
C1150       C  0.43643367  0.12937819  0.03975705     0.04700
C1151       C  0.44410657  0.12262885  0.04716646    -0.11400
C1152       C  0.44997498  0.11800633  0.02675031     0.24000
C1153       C  0.44835724  0.12036131  0.99887305    -0.12000
C1154       C  0.44116568  0.12760342  0.99141431     0.05400
C1155       C  0.45799732  0.11081054  0.03465579     0.27800
C1156       C  0.47293900  0.11849574  0.03512561    -0.12700
C1157       C  0.48057574  0.11167471  0.04225113     0.05900
C1158       C  0.47328666  0.09723416  0.05009735    -0.08600
C1159       C  0.45829409  0.08963989  0.05017361     0.06700
C1160       C  0.45069567  0.09634547  0.04198342    -0.13000
Br1161     Br  0.45571633  0.11326790  0.97094285    -0.05100
Br1162     Br  0.42853178  0.13560339  0.06825033     0.00600
Br1163     Br  0.50100561  0.12199741  0.03956060     0.01000
Br1164     Br  0.43022895  0.08575290  0.04083719    -0.03400
Br1165     Br  0.43945301  0.13102767  0.45308803     0.01100
Br1166     Br  0.44677655  0.11979100  0.08537431    -0.02700
Br1167     Br  0.48290222  0.13846781  0.52631769    -0.03500
Br1168     Br  0.44802816  0.07028144  0.06306711     0.00400
C1169       C  0.46922354  0.03201109  0.09811639     0.01800
C1170       C  0.45428150  0.02534286  0.09729810     0.04700
C1171       C  0.44590068  0.01143811  0.10746505    -0.11400
C1172       C  0.45241301  0.00431534  0.11921675     0.24000
C1173       C  0.46731894  0.01102515  0.12039778    -0.12000
C1174       C  0.47571520  0.02474240  0.10951343     0.05400
C1175       C  0.44375024  0.98955069  0.12949334     0.27800
C1176       C  0.43910322  0.98697317  0.15693425    -0.12700
C1177       C  0.43282070  0.97311786  0.16775038     0.05900
C1178       C  0.43107242  0.96176426  0.15104485    -0.08600
C1179       C  0.43479690  0.96426392  0.12293943     0.06700
C1180       C  0.44120423  0.97814177  0.11232890    -0.13000
Br1181     Br  0.47618562  0.00136250  0.13726876    -0.05100
Br1182     Br  0.44524208  0.03498401  0.08123087     0.00600
Br1183     Br  0.42637315  0.96971105  0.20530487     0.01000
Br1184     Br  0.44724756  0.98176376  0.07450508    -0.03400
Br1185     Br  0.49613003  0.03370321  0.11132156     0.01100
Br1186     Br  0.42550398  0.00198454  0.10496564    -0.02700
Br1187     Br  0.44179605  0.00257223  0.17979237    -0.03500
Br1188     Br  0.43225934  0.94902226  0.09904000     0.00400
C1189       C  0.57804269  0.03564015  0.35215324     0.01800
C1190       C  0.58416518  0.03399037  0.37659942     0.04700
C1191       C  0.57883413  0.02045607  0.38851459    -0.11400
C1192       C  0.56774835  0.00844278  0.37564383     0.24000
C1193       C  0.56231428  0.00988770  0.35037372    -0.12000
C1194       C  0.56723938  0.02341853  0.33882851     0.05400
C1195       C  0.56064418  0.99447986  0.38980626     0.27800
C1196       C  0.56494456  0.98445151  0.38507375    -0.12700
C1197       C  0.55697081  0.97062118  0.39585311     0.05900
C1198       C  0.54450825  0.96670008  0.41103456    -0.08600
C1199       C  0.54055719  0.97698673  0.41663638     0.06700
C1200       C  0.54868811  0.99084448  0.40621988    -0.13000
Br1201     Br  0.54746072  0.99321384  0.33241987    -0.05100
Br1202     Br  0.60005276  0.05011937  0.39382796     0.00600
Br1203     Br  0.56335515  0.95718717  0.39026636     0.01000
Br1204     Br  0.54310778  0.00481255  0.41322315    -0.03400
Br1205     Br  0.55798484  0.02496359  0.30620344     0.01100
Br1206     Br  0.58620449  0.01834198  0.42316646    -0.02700
Br1207     Br  0.58148390  0.98958892  0.36300123    -0.03500
Br1208     Br  0.52333941  0.97200705  0.43644201     0.00400
C1209       C  0.56724374  0.08575534  0.39251007     0.01800
C1210       C  0.55992741  0.07425100  0.41073645     0.04700
C1211       C  0.55226488  0.07535032  0.43273418    -0.11400
C1212       C  0.55199981  0.08799406  0.43686193     0.24000
C1213       C  0.55979503  0.09972996  0.41945076    -0.12000
C1214       C  0.56736517  0.09859497  0.39713876     0.05400
C1215       C  0.54309080  0.08855675  0.45914820     0.27800
C1216       C  0.52870491  0.08399155  0.45402114    -0.12700
C1217       C  0.51963673  0.08244955  0.47586652     0.05900
C1218       C  0.52488031  0.08521975  0.50298272    -0.08600
C1219       C  0.53941720  0.09023099  0.00796601     0.06700
C1220       C  0.54851838  0.09202183  0.48601321    -0.13000
Br1221     Br  0.55991936  0.11722462  0.42617727    -0.05100
Br1222     Br  0.56075660  0.05706284  0.40628076     0.00600
Br1223     Br  0.50007640  0.07673109  0.46855299     0.01000
Br1224     Br  0.56831568  0.09852896  0.49268679    -0.03400
Br1225     Br  0.57718578  0.11431001  0.37213923     0.01100
Br1226     Br  0.54195745  0.05945690  0.45724037    -0.02700
Br1227     Br  0.52134386  0.07922944  0.41712505    -0.03500
Br1228     Br  0.54667920  0.09339497  0.04499916     0.00400
C1229       C  0.56714557  0.08463023  0.25277236     0.01800
C1230       C  0.56217026  0.09435182  0.25480641     0.04700
C1231       C  0.55461526  0.09592020  0.23288017    -0.11400
C1232       C  0.55198927  0.08782422  0.20887407     0.24000
C1233       C  0.55737843  0.07852526  0.20635236    -0.12000
C1234       C  0.56490265  0.07688970  0.22823702     0.05400
C1235       C  0.54235684  0.08793406  0.18741107     0.27800
C1236       C  0.52781501  0.07769556  0.18842485    -0.12700
C1237       C  0.51874699  0.07669840  0.16689731     0.05900
C1238       C  0.52419739  0.08602861  0.14432305    -0.08600
C1239       C  0.53861128  0.09672408  0.14394915     0.06700
C1240       C  0.54767449  0.09772778  0.16556299    -0.13000
Br1241     Br  0.55407280  0.06775915  0.17299598    -0.05100
Br1242     Br  0.56461941  0.10476408  0.28831541     0.00600
Br1243     Br  0.49911893  0.06178416  0.16743180     0.01000
Br1244     Br  0.56736192  0.11238800  0.16520485    -0.03400
Br1245     Br  0.57234937  0.06422366  0.22415767     0.01100
Br1246     Br  0.54727287  0.10870892  0.23594395    -0.02700
Br1247     Br  0.52045673  0.06478490  0.21914090    -0.03500
Br1248     Br  0.54586846  0.11007295  0.11392078     0.00400
C1249       C  0.81285482  0.22984110  0.07513443     0.01800
C1250       C  0.81794951  0.23160495  0.10232998     0.04700
C1251       C  0.80880191  0.22344526  0.12364555    -0.11400
C1252       C  0.79444556  0.21370002  0.11805429     0.24000
C1253       C  0.78907406  0.21263491  0.09129206    -0.12000
C1254       C  0.79828062  0.22057101  0.06975157     0.05400
C1255       C  0.78546612  0.20375295  0.13992395     0.27800
C1256       C  0.78554868  0.19097850  0.14382331    -0.12700
C1257       C  0.77833577  0.18212374  0.16618829     0.05900
C1258       C  0.77082297  0.18590118  0.18462909    -0.08600
C1259       C  0.77040950  0.19850443  0.18030155     0.06700
C1260       C  0.77784959  0.20748887  0.15810354    -0.13000
Br1261     Br  0.76918574  0.19993632  0.08414948    -0.05100
Br1262     Br  0.83741226  0.24544407  0.11063830     0.00600
Br1263     Br  0.77872065  0.16472509  0.17140054     0.01000
Br1264     Br  0.77832220  0.22529611  0.15327532    -0.03400
Br1265     Br  0.79104078  0.21775657  0.03266513     0.01100
Br1266     Br  0.81599006  0.22519170  0.16053390    -0.02700
Br1267     Br  0.79607084  0.18592308  0.11898882    -0.03500
Br1268     Br  0.76054657  0.20399440  0.20582663     0.00400
C1269       C  0.77304075  0.18642645  0.32375745     0.01800
C1270       C  0.76899129  0.18154440  0.35086960     0.04700
C1271       C  0.77704850  0.18997465  0.37306816    -0.11400
C1272       C  0.78911779  0.20332554  0.36820403     0.24000
C1273       C  0.79291337  0.20842113  0.34117549    -0.12000
C1274       C  0.78482045  0.20002421  0.31893947     0.05400
C1275       C  0.79810778  0.21176807  0.39150812     0.27800
C1276       C  0.79511018  0.22125600  0.40547785    -0.12700
C1277       C  0.80345190  0.22896270  0.42813002     0.05900
C1278       C  0.81485857  0.22720637  0.43670822    -0.08600
C1279       C  0.81807895  0.21799651  0.42209490     0.06700
C1280       C  0.80961997  0.21018632  0.39975201    -0.13000
Br1281     Br  0.80954607  0.22668319  0.33475485    -0.05100
Br1282     Br  0.75212961  0.16349168  0.35762495     0.00600
Br1283     Br  0.79882494  0.24141648  0.44791298     0.01000
Br1284     Br  0.81374363  0.19724225  0.38036441    -0.03400
Br1285     Br  0.79036179  0.20686667  0.28189922     0.01100
Br1286     Br  0.77183168  0.18314003  0.41018806    -0.02700
Br1287     Br  0.77944223  0.22348297  0.39355988    -0.03500
Br1288     Br  0.83461553  0.21665933  0.43146509     0.00400
C1289       C  0.70698289  0.13634685  0.27840647     0.01800
C1290       C  0.69978599  0.12178768  0.28541263     0.04700
C1291       C  0.68534998  0.11489848  0.29274010    -0.11400
C1292       C  0.67816000  0.12260566  0.29408020     0.24000
C1293       C  0.68547267  0.13725352  0.28829652    -0.12000
C1294       C  0.69976328  0.14406654  0.27998620     0.05400
C1295       C  0.66269739  0.11515259  0.29988790     0.27800
C1296       C  0.65300911  0.11135160  0.27796420    -0.12700
C1297       C  0.63834456  0.10430588  0.28311649     0.05900
C1298       C  0.63324742  0.10072420  0.31025555    -0.08600
C1299       C  0.64296233  0.10445835  0.33222168     0.06700
C1300       C  0.65766322  0.11181315  0.32704691    -0.13000
Br1301     Br  0.67579863  0.14792639  0.29192764    -0.05100
Br1302     Br  0.70942266  0.11100455  0.28377779     0.00600
Br1303     Br  0.62533807  0.10022731  0.25290701     0.01000
Br1304     Br  0.67096477  0.11734472  0.35708414    -0.03400
Br1305     Br  0.70948883  0.16410550  0.27175093     0.01100
Br1306     Br  0.67522986  0.09477274  0.30018377    -0.02700
Br1307     Br  0.65991729  0.11580904  0.24074996    -0.03500
Br1308     Br  0.63619744  0.09877729  0.36925711     0.00400
C1309       C  0.69980105  0.78765569  0.32152413     0.01800
C1310       C  0.68898021  0.78152867  0.34148155     0.04700
C1311       C  0.67468159  0.77369966  0.33334631    -0.11400
C1312       C  0.67115890  0.77174597  0.30528114     0.24000
C1313       C  0.68194425  0.77677551  0.28538470    -0.12000
C1314       C  0.69625972  0.78480087  0.29340229     0.05400
C1315       C  0.65622968  0.76594773  0.29654925     0.27800
C1316       C  0.64692503  0.75120163  0.29471914    -0.12700
C1317       C  0.63276569  0.74591713  0.28637808     0.05900
C1318       C  0.62799415  0.75541190  0.27940275    -0.08600
C1319       C  0.63742034  0.77018870  0.28091542     0.06700
C1320       C  0.65144069  0.77541901  0.28979289    -0.13000
Br1321     Br  0.67689370  0.77331530  0.24700852    -0.05100
Br1322     Br  0.69368194  0.78372310  0.38006343     0.00600
Br1323     Br  0.62011897  0.72570814  0.28345431     0.01000
Br1324     Br  0.66410644  0.79563488  0.29330906    -0.03400
Br1325     Br  0.71070336  0.79288094  0.26542605     0.01100
Br1326     Br  0.65982451  0.76624158  0.36052834    -0.02700
Br1327     Br  0.65368522  0.73835351  0.30358890    -0.03500
Br1328     Br  0.63105988  0.78340731  0.27210221     0.00400
C1329       C  0.80496450  0.76343911  0.39058860     0.01800
C1330       C  0.80739294  0.77126928  0.36611370     0.04700
C1331       C  0.79973631  0.77823766  0.36069521    -0.11400
C1332       C  0.78937065  0.77709230  0.37934159     0.24000
C1333       C  0.78676009  0.76909434  0.40357961    -0.12000
C1334       C  0.79469813  0.76245187  0.40943220     0.05400
C1335       C  0.78136680  0.78449514  0.37361879     0.27800
C1336       C  0.78577383  0.79784742  0.38552307    -0.12700
C1337       C  0.77820124  0.80490386  0.38012999     0.05900
C1338       C  0.76649313  0.79882203  0.36211498    -0.08600
C1339       C  0.76209858  0.78548462  0.35017366     0.06700
C1340       C  0.76943456  0.77824943  0.35616725    -0.13000
Br1341     Br  0.77205382  0.76702974  0.42835232    -0.05100
Br1342     Br  0.82156773  0.77289771  0.34037682     0.00600
Br1343     Br  0.78408494  0.82304598  0.39690601     0.01000
Br1344     Br  0.76307001  0.75970707  0.34081971    -0.03400
Br1345     Br  0.79101056  0.75149296  0.44268934     0.01100
Br1346     Br  0.80348627  0.78949543  0.32784682    -0.02700
Br1347     Br  0.80233536  0.80651416  0.40886130    -0.03500
Br1348     Br  0.74563305  0.77687409  0.32656394     0.00400
C1349       C  0.79514160  0.69791768  0.43135941     0.01800
C1350       C  0.79196912  0.69549321  0.45967535     0.04700
C1351       C  0.78393108  0.68153138  0.46966530    -0.11400
C1352       C  0.77896730  0.66996941  0.45152497     0.24000
C1353       C  0.78119318  0.67238344  0.42309985    -0.12000
C1354       C  0.78925728  0.68632652  0.41300153     0.05400
C1355       C  0.77294144  0.65538504  0.46264482     0.27800
C1356       C  0.78215983  0.65026015  0.46919065    -0.12700
C1357       C  0.77671598  0.63644881  0.47955214     0.05900
C1358       C  0.76198164  0.62771120  0.48377240    -0.08600
C1359       C  0.75276691  0.63295297  0.47770017     0.06700
C1360       C  0.75825438  0.64677197  0.46707970    -0.13000
Br1361     Br  0.77362470  0.65649339  0.39819108    -0.05100
Br1362     Br  0.79948926  0.71104868  0.48545775     0.00600
Br1363     Br  0.78950984  0.62933049  0.48635265     0.01000
Br1364     Br  0.74575855  0.65402626  0.45880028    -0.03400
Br1365     Br  0.79202506  0.68949280  0.37393172     0.01100
Br1366     Br  0.78037413  0.67808886  0.00853680    -0.02700
Br1367     Br  0.80234151  0.66226474  0.46385759    -0.03500
Br1368     Br  0.73273096  0.62150973  0.48510734     0.00400
C1369       C  0.85628123  0.74829984  0.47387202     0.01800
C1370       C  0.86788633  0.76185306  0.48000101     0.04700
C1371       C  0.87687264  0.76359924  0.00231142    -0.11400
C1372       C  0.87443931  0.75177853  0.01822140     0.24000
C1373       C  0.86290664  0.73825091  0.01206744    -0.12000
C1374       C  0.85378851  0.73650709  0.49011615     0.05400
C1375       C  0.88416007  0.75326760  0.04097785     0.27800
C1376       C  0.89572404  0.75123250  0.03583573    -0.12700
C1377       C  0.90355551  0.75023410  0.05784735     0.05900
C1378       C  0.89981683  0.75123740  0.08507944    -0.08600
C1379       C  0.88883005  0.75422178  0.09013232     0.06700
C1380       C  0.88099389  0.75519621  0.06807698    -0.13000
Br1381     Br  0.85970480  0.72203712  0.03375321    -0.05100
Br1382     Br  0.87212620  0.77785862  0.45674175     0.00600
Br1383     Br  0.91946091  0.74759104  0.05063863     0.01000
Br1384     Br  0.86536249  0.75833134  0.07495289    -0.03400
Br1385     Br  0.83761011  0.71794596  0.48309487     0.01100
Br1386     Br  0.89265112  0.78208740  0.01100379    -0.02700
Br1387     Br  0.90032276  0.74909787  0.49862493    -0.03500
Br1388     Br  0.88364372  0.75575666  0.12731738     0.00400
C1389       C  0.89294076  0.74605803  0.22019629     0.01800
C1390       C  0.88378383  0.73422288  0.23642263     0.04700
C1391       C  0.87588753  0.73570211  0.25755161    -0.11400
C1392       C  0.87724691  0.74903075  0.26285854     0.24000
C1393       C  0.88620398  0.76082062  0.24645300    -0.12000
C1394       C  0.89400959  0.75932841  0.22503616     0.05400
C1395       C  0.86951358  0.75050428  0.28640371     0.27800
C1396       C  0.85558604  0.74790675  0.28291235    -0.12700
C1397       C  0.84740569  0.74695484  0.30596697     0.05900
C1398       C  0.85314182  0.74854128  0.33261410    -0.08600
C1399       C  0.86731764  0.75171498  0.33595491     0.06700
C1400       C  0.87551486  0.75284462  0.31283964    -0.13000
Br1401     Br  0.88764543  0.77891979  0.25334843    -0.05100
Br1402     Br  0.88254160  0.71607847  0.23078831     0.00600
Br1403     Br  0.82837598  0.74354091  0.30089461     0.01000
Br1404     Br  0.89482195  0.75695452  0.31726304    -0.03400
Br1405     Br  0.90560176  0.77527230  0.20153075     0.01100
Br1406     Br  0.86318087  0.71946526  0.27950253    -0.02700
Br1407     Br  0.84764267  0.74517470  0.24649618    -0.03500
Br1408     Br  0.87516568  0.75310376  0.37217720     0.00400
C1409       C  0.86896944  0.62582365  0.23389071     0.01800
C1410       C  0.87690863  0.62820445  0.20950338     0.04700
C1411       C  0.88413195  0.64183799  0.19759668    -0.11400
C1412       C  0.88389995  0.65328727  0.21039460     0.24000
C1413       C  0.87693978  0.65120167  0.23573218    -0.12000
C1414       C  0.86931370  0.63752065  0.24728907     0.05400
C1415       C  0.89033858  0.66742697  0.19682548     0.27800
C1416       C  0.90491870  0.67723994  0.19978346    -0.12700
C1417       C  0.91064565  0.69112846  0.18939399     0.05900
C1418       C  0.90177255  0.69534956  0.17628568    -0.08600
C1419       C  0.88724339  0.68530706  0.17239036     0.06700
C1420       C  0.88159821  0.67137516  0.18247276    -0.13000
Br1421     Br  0.87759222  0.66720323  0.25415593    -0.05100
Br1422     Br  0.87835673  0.61296011  0.19257325     0.00600
Br1423     Br  0.93075870  0.70423870  0.19253875     0.01000
Br1424     Br  0.86171105  0.65771463  0.17751476    -0.03400
Br1425     Br  0.85850136  0.63496965  0.28028846     0.01100
Br1426     Br  0.89407848  0.64483009  0.16333080    -0.02700
Br1427     Br  0.91693442  0.67170600  0.21878373    -0.03500
Br1428     Br  0.87467467  0.69075406  0.15523145     0.00400
C1429       C  0.03596274  0.79694336  0.10978901     0.01800
C1430       C  0.02737793  0.78204683  0.11196536     0.04700
C1431       C  0.01309225  0.77590586  0.11998621    -0.11400
C1432       C  0.00722987  0.78456215  0.12577994     0.24000
C1433       C  0.01577068  0.79943433  0.12385793    -0.12000
C1434       C  0.03010356  0.80562537  0.11593834     0.05400
C1435       C  0.99188867  0.77786945  0.13251723     0.27800
C1436       C  0.98210291  0.77592968  0.11166616    -0.12700
C1437       C  0.96746705  0.76850980  0.11717605     0.05900
C1438       C  0.96247037  0.76287547  0.14359770    -0.08600
C1439       C  0.97229033  0.76498135  0.16460615     0.06700
C1440       C  0.98697173  0.77257427  0.15911119    -0.13000
Br1441     Br  0.00775830  0.81127140  0.13222481    -0.05100
Br1442     Br  0.03487472  0.76987934  0.10258956     0.00600
Br1443     Br  0.95433524  0.76640959  0.08841207     0.01000
Br1444     Br  0.00042114  0.77548040  0.18776237    -0.03400
Br1445     Br  0.04181249  0.82604063  0.11498289     0.01100
Br1446     Br  0.00137818  0.75553171  0.12270295    -0.02700
Br1447     Br  0.98879616  0.78323840  0.07527924    -0.03500
Br1448     Br  0.96567919  0.75651774  0.20028098     0.00400
C1449       C  0.09663233  0.78726078  0.07533976     0.01800
C1450       C  0.08810514  0.77301160  0.06681293     0.04700
C1451       C  0.09445780  0.76509876  0.05850296    -0.11400
C1452       C  0.10933105  0.77136350  0.05856999     0.24000
C1453       C  0.11784448  0.78540308  0.06789636    -0.12000
C1454       C  0.11155852  0.79335653  0.07614777     0.05400
C1455       C  0.11617311  0.76383563  0.04619742     0.27800
C1456       C  0.12173125  0.75721967  0.06291146    -0.12700
C1457       C  0.12999232  0.75193993  0.05125028     0.05900
C1458       C  0.13226580  0.75277587  0.02248628    -0.08600
C1459       C  0.12574582  0.75848977  0.00567443     0.06700
C1460       C  0.11796981  0.76421593  0.01755694    -0.13000
Br1461     Br  0.13825628  0.79399614  0.06783108    -0.05100
Br1462     Br  0.06771648  0.76419443  0.06661824     0.00600
Br1463     Br  0.13911362  0.74482184  0.07543000     0.01000
Br1464     Br  0.11012026  0.77308203  0.49466889    -0.03400
Br1465     Br  0.12369071  0.81307255  0.08589652     0.01100
Br1466     Br  0.08291100  0.74580056  0.04596494    -0.02700
Br1467     Br  0.11829849  0.75580321  0.10194318    -0.03500
Br1468     Br  0.12708520  0.75828455  0.46617853     0.00400
C1469       C  0.23892695  0.36084640  0.01345239     0.01800
C1470       C  0.22431511  0.35071198  0.01100244     0.04700
C1471       C  0.21911593  0.33671115  0.02027747    -0.11400
C1472       C  0.22833060  0.33278910  0.03269389     0.24000
C1473       C  0.24289451  0.34276631  0.03492006    -0.12000
C1474       C  0.24822913  0.35669436  0.02500655     0.05400
C1475       C  0.22240803  0.31827347  0.04429623     0.27800
C1476       C  0.21790852  0.31568145  0.07180324    -0.12700
C1477       C  0.21037568  0.30168503  0.08182880     0.05900
C1478       C  0.20685166  0.29010187  0.06409537    -0.08600
C1479       C  0.21227323  0.29281788  0.03697734     0.06700
C1480       C  0.22007594  0.30688844  0.02724371    -0.13000
Br1481     Br  0.25546757  0.33740092  0.55219127    -0.05100
Br1482     Br  0.21100089  0.35604873  0.99723143     0.00600
Br1483     Br  0.20522401  0.29856246  0.12018421     0.01000
Br1484     Br  0.22698612  0.31067522  0.98999014    -0.03400
Br1485     Br  0.26841776  0.36990456  0.52664634     0.01100
Br1486     Br  0.19917484  0.32286389  0.01692536    -0.02700
Br1487     Br  0.22145251  0.33135687  0.09533845    -0.03500
Br1488     Br  0.20833342  0.27750238  0.01206796     0.00400
C1489       C  0.19644658  0.22432220  0.10952470     0.01800
C1490       C  0.20183426  0.21925020  0.08882813     0.04700
C1491       C  0.20912591  0.21208788  0.09600368    -0.11400
C1492       C  0.21102836  0.20988934  0.12380734     0.24000
C1493       C  0.20562269  0.21483052  0.14448626    -0.12000
C1494       C  0.19843951  0.22211600  0.13744436     0.05400
C1495       C  0.21866756  0.20228778  0.13126304     0.27800
C1496       C  0.21126909  0.18736607  0.13247920    -0.12700
C1497       C  0.21857244  0.18008252  0.13836883     0.05900
C1498       C  0.23336503  0.18772616  0.14302874    -0.08600
C1499       C  0.24070624  0.20272032  0.14251083     0.06700
C1500       C  0.23332442  0.20996958  0.13685914    -0.13000
Br1501     Br  0.20796349  0.21136511  0.18250116    -0.05100
Br1502     Br  0.20001539  0.22273368  0.05056359     0.00600
Br1503     Br  0.20830290  0.15958317  0.13850290     0.01000
Br1504     Br  0.24315926  0.23044927  0.13720551    -0.03400
Br1505     Br  0.19089160  0.22847157  0.16636456     0.01100
Br1506     Br  0.21665019  0.20530995  0.06778993    -0.02700
Br1507     Br  0.19107100  0.17695123  0.12603911    -0.03500
Br1508     Br  0.26075196  0.21343183  0.15062015     0.00400
C1509       C  0.30024168  0.19236202  0.17367663     0.01800
C1510       C  0.30642691  0.18679388  0.19157560     0.04700
C1511       C  0.32061303  0.19524266  0.19990031    -0.11400
C1512       C  0.32870676  0.20928118  0.19027124     0.24000
C1513       C  0.32256066  0.21488061  0.17235566    -0.12000
C1514       C  0.30828666  0.20645097  0.16419369     0.05400
C1515       C  0.34390163  0.21780983  0.19786858     0.27800
C1516       C  0.34813502  0.22654878  0.22132581    -0.12700
C1517       C  0.36250887  0.23390817  0.22927057     0.05900
C1518       C  0.37261673  0.23238554  0.21394709    -0.08600
C1519       C  0.36839462  0.22392904  0.19005105     0.06700
C1520       C  0.35405437  0.21659083  0.18217624    -0.13000
Br1521     Br  0.33380837  0.23406472  0.15900752    -0.05100
Br1522     Br  0.29553351  0.16738848  0.20412942     0.00600
Br1523     Br  0.36843868  0.24636830  0.26065224     0.01000
Br1524     Br  0.34808550  0.20411907  0.15078023    -0.03400
Br1525     Br  0.29957447  0.21438965  0.14121639     0.01100
Br1526     Br  0.32908754  0.18755880  0.22423910    -0.02700
Br1527     Br  0.33411419  0.22786986  0.24316330    -0.03500
Br1528     Br  0.38202887  0.22151528  0.16898751     0.00400
C1529       C  0.24468241  0.13374801  0.08959273     0.01800
C1530       C  0.25307216  0.13722425  0.06571796     0.04700
C1531       C  0.25022735  0.12677023  0.04587899    -0.11400
C1532       C  0.23873388  0.11287180  0.04935111     0.24000
C1533       C  0.23007325  0.10944217  0.07274826    -0.12000
C1534       C  0.23309869  0.11981015  0.09298116     0.05400
C1535       C  0.23614286  0.10190031  0.02852458     0.27800
C1536       C  0.22939529  0.10153072  0.50354630    -0.12700
C1537       C  0.22958464  0.09326392  0.48155124     0.05900
C1538       C  0.23612068  0.08495399  0.48488100    -0.08600
C1539       C  0.24128571  0.08405063  0.51095117     0.06700
C1540       C  0.24169963  0.09282052  0.03250387    -0.13000
Br1541     Br  0.21428483  0.09041178  0.07719514    -0.05100
Br1542     Br  0.26814585  0.15646137  0.05948953     0.00600
Br1543     Br  0.22215189  0.09459031  0.44634454     0.01000
Br1544     Br  0.25076235  0.09314931  0.06679088    -0.03400
Br1545     Br  0.22188981  0.11452073  0.12608206     0.01100
Br1546     Br  0.26233239  0.13136779  0.01413801    -0.02700
Br1547     Br  0.22065996  0.11305211  0.49920383    -0.03500
Br1548     Br  0.24765061  0.07064655  0.51730651     0.00400
C1549       C  0.24701489  0.13639277  0.22665032     0.01800
C1550       C  0.24013487  0.13707381  0.25062500     0.04700
C1551       C  0.23974269  0.12936248  0.27417656    -0.11400
C1552       C  0.24614033  0.12088987  0.27380199     0.24000
C1553       C  0.25260557  0.11984063  0.24965848    -0.12000
C1554       C  0.25310433  0.12758839  0.22616052     0.05400
C1555       C  0.24612957  0.11299203  0.29866280     0.27800
C1556       C  0.25720138  0.11948829  0.31803713    -0.12700
C1557       C  0.25771998  0.11164777  0.34059847     0.05900
C1558       C  0.24736103  0.09717461  0.34340209    -0.08600
C1559       C  0.23625657  0.09074485  0.32407413     0.06700
C1560       C  0.23557895  0.09866859  0.30190520    -0.13000
Br1561     Br  0.26102083  0.10790458  0.24911036    -0.05100
Br1562     Br  0.23075631  0.14812423  0.25096464     0.00600
Br1563     Br  0.27305666  0.12055689  0.36677118     0.01000
Br1564     Br  0.22035570  0.08987524  0.27552760    -0.03400
Br1565     Br  0.26303440  0.12673498  0.19408466     0.01100
Br1566     Br  0.23047187  0.13037663  0.30702263    -0.02700
Br1567     Br  0.27195364  0.13896379  0.31288952    -0.03500
Br1568     Br  0.22170895  0.07114790  0.32832318     0.00400
C1569       C  0.29316275  0.08558882  0.43020336     0.01800
C1570       C  0.30342801  0.08923601  0.40941049     0.04700
C1571       C  0.31794945  0.09624092  0.41618450    -0.11400
C1572       C  0.32225098  0.09903708  0.44382894     0.24000
C1573       C  0.31200475  0.09464490  0.46472947    -0.12000
C1574       C  0.29751512  0.08814818  0.45797583     0.05400
C1575       C  0.33752419  0.10770629  0.45092297     0.27800
C1576       C  0.34575792  0.10124754  0.45559969    -0.12700
C1577       C  0.36004260  0.10953770  0.46385762     0.05900
C1578       C  0.36617620  0.12436197  0.46704168    -0.08600
C1579       C  0.35795433  0.13081603  0.46167924     0.06700
C1580       C  0.34367092  0.12249546  0.45377695    -0.13000
Br1581     Br  0.31801254  0.09834882  0.00260209    -0.05100
Br1582     Br  0.29764740  0.08432885  0.37166250     0.00600
Br1583     Br  0.37088107  0.10044098  0.97244863     0.01000
Br1584     Br  0.33241128  0.13132028  0.44668476    -0.03400
Br1585     Br  0.28392929  0.08409081  0.48688075     0.01100
Br1586     Br  0.33204654  0.10274598  0.38759578    -0.02700
Br1587     Br  0.33735013  0.08103239  0.45076943    -0.03500
Br1588     Br  0.36633621  0.15117467  0.46388676     0.00400
C1589       C  0.20334147  0.89747405  0.31171023     0.01800
C1590       C  0.20515368  0.89683525  0.28307881     0.04700
C1591       C  0.21342767  0.89123484  0.27303620    -0.11400
C1592       C  0.21938381  0.88563059  0.29131054     0.24000
C1593       C  0.21794384  0.88658443  0.31981937    -0.12000
C1594       C  0.21015043  0.89269476  0.33004118     0.05400
C1595       C  0.22615525  0.87770206  0.28057033     0.27800
C1596       C  0.21765797  0.86319429  0.27419916    -0.12700
C1597       C  0.22397451  0.85531102  0.26571976     0.05900
C1598       C  0.23885907  0.86201124  0.26267167    -0.08600
C1599       C  0.24732092  0.87667841  0.26823490     0.06700
C1600       C  0.24096793  0.88447527  0.27726321    -0.13000
Br1601     Br  0.22632343  0.87906126  0.34479206    -0.05100
Br1602     Br  0.19521146  0.90218516  0.25711056     0.00600
Br1603     Br  0.21215592  0.83508991  0.26033566     0.01000
Br1604     Br  0.25244114  0.90449710  0.28482019    -0.03400
Br1605     Br  0.20911384  0.89468678  0.36921209     0.01100
Br1606     Br  0.21629228  0.89076614  0.23408532    -0.02700
Br1607     Br  0.19727352  0.85413740  0.27714060    -0.03500
Br1608     Br  0.26754697  0.88630047  0.26247544     0.00400
C1609       C  0.14481876  0.88834101  0.26635101     0.01800
C1610       C  0.14373669  0.87558559  0.25679932     0.04700
C1611       C  0.13501289  0.86846432  0.23422301    -0.11400
C1612       C  0.12738289  0.87403961  0.22095826     0.24000
C1613       C  0.12865913  0.88689359  0.22994933    -0.12000
C1614       C  0.13731483  0.89402633  0.25269604     0.05400
C1615       C  0.11801192  0.86618973  0.19758305     0.27800
C1616       C  0.12342149  0.86903138  0.17068322    -0.12700
C1617       C  0.11534409  0.86006796  0.14903127     0.05900
C1618       C  0.10180725  0.84827147  0.15432584    -0.08600
C1619       C  0.09599366  0.84609770  0.18089053     0.06700
C1620       C  0.10413479  0.85498938  0.20255191    -0.13000
Br1621     Br  0.11843934  0.89458678  0.21101422    -0.05100
Br1622     Br  0.15464838  0.86803768  0.27364465     0.00600
Br1623     Br  0.12333508  0.86339448  0.11262549     0.01000
Br1624     Br  0.09658438  0.85152994  0.23930924    -0.03400
Br1625     Br  0.13814466  0.91110396  0.26591721     0.01100
Br1626     Br  0.13351685  0.85103027  0.22112592    -0.02700
Br1627     Br  0.14221252  0.88480126  0.16395222    -0.03500
Br1628     Br  0.07676798  0.83112268  0.18742885     0.00400
C1629       C  0.14554037  0.88603151  0.40864549     0.01800
C1630       C  0.15111168  0.88713372  0.43533572     0.04700
C1631       C  0.14230088  0.87842976  0.45661603    -0.11400
C1632       C  0.12788570  0.86869303  0.45143393     0.24000
C1633       C  0.12221562  0.86782168  0.42505406    -0.12000
C1634       C  0.13101099  0.87636156  0.40364052     0.05400
C1635       C  0.11871618  0.85920188  0.47365089     0.27800
C1636       C  0.11834276  0.84629972  0.47895201    -0.12700
C1637       C  0.11004575  0.83755837  0.00063385     0.05900
C1638       C  0.10176621  0.84145793  0.01661478    -0.08600
C1639       C  0.10169297  0.85409006  0.01055534     0.06700
C1640       C  0.11038580  0.86310240  0.98947825    -0.13000
Br1641     Br  0.10236868  0.85470628  0.41828544    -0.05100
Br1642     Br  0.17064955  0.90092245  0.44323628     0.00600
Br1643     Br  0.10977168  0.81998952  0.00801903     0.01000
Br1644     Br  0.11148700  0.88110236  0.98294037    -0.03400
Br1645     Br  0.12318866  0.87394228  0.36708909     0.01100
Br1646     Br  0.14988626  0.87976624  0.49303351    -0.02700
Br1647     Br  0.12948022  0.84084776  0.45681632    -0.03500
Br1648     Br  0.09023560  0.85942545  0.03189200     0.00400
C1649       C  0.18977229  0.95323495  0.35621169     0.01800
C1650       C  0.20121350  0.96330807  0.34039569     0.04700
C1651       C  0.20770495  0.97781009  0.34695327    -0.11400
C1652       C  0.20269606  0.98225916  0.36925213     0.24000
C1653       C  0.19096255  0.97220937  0.38455306    -0.12000
C1654       C  0.18454237  0.95768824  0.37810557     0.05400
C1655       C  0.21013131  0.99744011  0.37724667     0.27800
C1656       C  0.22138253  0.00257374  0.39626214    -0.12700
C1657       C  0.22867923  0.01701614  0.40356381     0.05900
C1658       C  0.22473045  0.02640872  0.39187217    -0.08600
C1659       C  0.21334160  0.02118998  0.37301090     0.06700
C1660       C  0.20610901  0.00674400  0.36564220    -0.13000
Br1661     Br  0.18386749  0.97839972  0.41451283    -0.05100
Br1662     Br  0.20789574  0.95717146  0.30966032     0.00600
Br1663     Br  0.24371476  0.02373946  0.43046445     0.01000
Br1664     Br  0.19087421  0.99965133  0.33915619    -0.03400
Br1665     Br  0.16888016  0.94381941  0.39971774     0.01100
Br1666     Br  0.22357663  0.99161867  0.32569129    -0.02700
Br1667     Br  0.22681165  0.98972581  0.41208425    -0.03500
Br1668     Br  0.20806696  0.03388316  0.35601508     0.00400
C1669       C  0.90529488  0.19711557  0.43383488     0.01800
C1670       C  0.89606611  0.19926543  0.41662980     0.04700
C1671       C  0.88972128  0.20694904  0.42623739    -0.11400
C1672       C  0.89266406  0.21266999  0.45291728     0.24000
C1673       C  0.90241312  0.21119484  0.46959797    -0.12000
C1674       C  0.90873104  0.20345666  0.46015430     0.05400
C1675       C  0.88500241  0.21966140  0.46390740     0.27800
C1676       C  0.89113915  0.23452151  0.46253762    -0.12700
C1677       C  0.88378654  0.24105686  0.47298050     0.05900
C1678       C  0.87016230  0.23272229  0.48441356    -0.08600
C1679       C  0.86403012  0.21782828  0.48574497     0.06700
C1680       C  0.87147669  0.21134187  0.47567084    -0.13000
Br1681     Br  0.90673852  0.21946962  0.50581973    -0.05100
Br1682     Br  0.89249776  0.19223835  0.37941130     0.00600
Br1683     Br  0.89258687  0.26145574  0.97246961     0.01000
Br1684     Br  0.86302904  0.19096889  0.47732612    -0.03400
Br1685     Br  0.92141825  0.20099166  0.48428847     0.01100
Br1686     Br  0.87675884  0.20949227  0.40310305    -0.02700
Br1687     Br  0.90949427  0.24582434  0.44578808    -0.03500
Br1688     Br  0.84500201  0.20612169  0.49961527     0.00400
C1689       C  0.09342559  0.29140710  0.31741272     0.01800
C1690       C  0.09452090  0.29515398  0.28933002     0.04700
C1691       C  0.10071999  0.30949928  0.28167544    -0.11400
C1692       C  0.10602566  0.32016501  0.30185688     0.24000
C1693       C  0.10414328  0.31645328  0.32982890    -0.12000
C1694       C  0.09764666  0.30208761  0.33762442     0.05400
C1695       C  0.11505701  0.33517236  0.29340988     0.27800
C1696       C  0.12954510  0.34036739  0.28824213    -0.12700
C1697       C  0.13808054  0.35416897  0.27800563     0.05900
C1698       C  0.13212819  0.36281882  0.27256398    -0.08600
C1699       C  0.11770784  0.35776633  0.27853297     0.06700
C1700       C  0.10918764  0.34395666  0.28905179    -0.13000
Br1701     Br  0.11123797  0.33115339  0.35735060    -0.05100
Br1702     Br  0.08880309  0.28100727  0.26085963     0.00600
Br1703     Br  0.15812141  0.36140353  0.27277393     0.01000
Br1704     Br  0.08947424  0.33695650  0.29729888    -0.03400
Br1705     Br  0.09434590  0.29712875  0.37604659     0.01100
Br1706     Br  0.10289732  0.31474979  0.24335825    -0.02700
Br1707     Br  0.13765076  0.32843740  0.29511321    -0.03500
Br1708     Br  0.10942631  0.36943193  0.27113321     0.00400
C1709       C  0.14781764  0.24015138  0.01595713     0.01800
C1710       C  0.15250334  0.25137243  0.99684659     0.04700
C1711       C  0.14347954  0.25082303  0.47566538    -0.11400
C1712       C  0.12975230  0.23897033  0.47325003     0.24000
C1713       C  0.12520102  0.22751006  0.49164498    -0.12000
C1714       C  0.13421692  0.22806973  0.01298769     0.05400
C1715       C  0.12016007  0.23872396  0.45134882     0.27800
C1716       C  0.11082951  0.24383685  0.45670466    -0.12700
C1717       C  0.10273903  0.24491898  0.43526891     0.05900
C1718       C  0.10392233  0.24082240  0.40836892    -0.08600
C1719       C  0.11299200  0.23530930  0.40325479     0.06700
C1720       C  0.12105668  0.23424783  0.42474796    -0.13000
Br1721     Br  0.10641940  0.21126825  0.48785984    -0.05100
Br1722     Br  0.17146551  0.26746289  0.99919832     0.00600
Br1723     Br  0.08989109  0.25181869  0.44303396     0.01000
Br1724     Br  0.13378748  0.22713523  0.41776122    -0.03400
Br1725     Br  0.12755242  0.21272990  0.03910052     0.01100
Br1726     Br  0.14974369  0.26646980  0.45025149    -0.02700
Br1727     Br  0.10938859  0.24959803  0.99338493    -0.03500
Br1728     Br  0.11538772  0.23028845  0.36647085     0.00400
C1729       C  0.10531648  0.24232810  0.26934823     0.01800
C1730       C  0.10350725  0.22896484  0.26205702     0.04700
C1731       C  0.11184659  0.22798857  0.24103268    -0.11400
C1732       C  0.12168996  0.24026232  0.22671459     0.24000
C1733       C  0.12324938  0.25351592  0.23349933    -0.12000
C1734       C  0.11519827  0.25458333  0.25483336     0.05400
C1735       C  0.13021290  0.23936147  0.20392189     0.27800
C1736       C  0.14445780  0.24314217  0.20837764    -0.12700
C1737       C  0.15306418  0.24404366  0.18609338     0.05900
C1738       C  0.14732184  0.24071673  0.15929677    -0.08600
C1739       C  0.13284719  0.23631062  0.15510606     0.06700
C1740       C  0.12442346  0.23593066  0.17729661    -0.13000
Br1741     Br  0.13644656  0.27025141  0.21325995    -0.05100
Br1742     Br  0.09009164  0.21204142  0.28143927     0.00600
Br1743     Br  0.17269761  0.24973532  0.19256221     0.01000
Br1744     Br  0.10516448  0.23164009  0.17110872    -0.03400
Br1745     Br  0.11743445  0.27291445  0.26315291     0.01100
Br1746     Br  0.11011664  0.20993933  0.23212336    -0.02700
Br1747     Br  0.15224048  0.24752869  0.24503198    -0.03500
Br1748     Br  0.12465831  0.23176493  0.11875676     0.00400
C1749       C  0.96571500  0.18766453  0.39732310     0.01800
C1750       C  0.97442611  0.20210818  0.40420365     0.04700
C1751       C  0.98890899  0.20929614  0.39731454    -0.11400
C1752       C  0.99484599  0.20199230  0.38415795     0.24000
C1753       C  0.98630945  0.18740539  0.37840950    -0.12000
C1754       C  0.97174201  0.18025786  0.38479106     0.05400
C1755       C  0.00998289  0.20972776  0.37574597     0.27800
C1756       C  0.01367540  0.21499594  0.34876684    -0.12700
C1757       C  0.02802023  0.22245273  0.34076367     0.05900
C1758       C  0.03873367  0.22462264  0.35974203    -0.08600
C1759       C  0.03499686  0.21921657  0.38667225     0.06700
C1760       C  0.02066168  0.21180893  0.39464032    -0.13000
Br1761     Br  0.99462228  0.17736874  0.36120292    -0.05100
Br1762     Br  0.96663105  0.21192691  0.42413142     0.00600
Br1763     Br  0.03295997  0.23031182  0.30424473     0.01000
Br1764     Br  0.01558542  0.20438097  0.43140500    -0.03400
Br1765     Br  0.95996697  0.16057233  0.37479318     0.01100
Br1766     Br  0.00058681  0.22924699  0.40534380    -0.02700
Br1767     Br  0.99899404  0.21204903  0.32290629    -0.03500
Br1768     Br  0.04946904  0.22136285  0.41239676     0.00400
C1769       C  0.90043270  0.14446167  0.33609180     0.01800
C1770       C  0.88826019  0.13095984  0.33955204     0.04700
C1771       C  0.88075263  0.12294768  0.31652386    -0.11400
C1772       C  0.88540342  0.12831366  0.28993867     0.24000
C1773       C  0.89759005  0.14174616  0.28636612    -0.12000
C1774       C  0.90506708  0.14986417  0.30942583     0.05400
C1775       C  0.87691372  0.12007461  0.26592873     0.27800
C1776       C  0.87901304  0.10942004  0.25439662    -0.12700
C1777       C  0.87018844  0.10091796  0.23292344     0.05900
C1778       C  0.85921015  0.10302449  0.22308312    -0.08600
C1779       C  0.85725933  0.11384146  0.23440551     0.06700
C1780       C  0.86610271  0.12233974  0.25578152    -0.13000
Br1781     Br  0.90383636  0.14901554  0.24982097    -0.05100
Br1782     Br  0.88118900  0.12376024  0.37584868     0.00600
Br1783     Br  0.87347417  0.08677821  0.21628057     0.01000
Br1784     Br  0.86318492  0.13685105  0.27188721    -0.03400
Br1785     Br  0.92180511  0.16820721  0.30439895     0.01100
Br1786     Br  0.86372996  0.10477490  0.32125506    -0.02700
Br1787     Br  0.89386554  0.10640979  0.26839285    -0.03500
Br1788     Br  0.84197021  0.11657419  0.22176550     0.00400
C1789       C  0.90118517  0.13985167  0.48127081     0.01800
C1790       C  0.89662543  0.14482914  0.50352995     0.04700
C1791       C  0.88864819  0.13552109  0.02481931    -0.11400
C1792       C  0.88500177  0.12117399  0.02378346     0.24000
C1793       C  0.88992280  0.11627245  0.50215109    -0.12000
C1794       C  0.89796911  0.12557334  0.48085303     0.05400
C1795       C  0.87526007  0.11119520  0.04470415     0.27800
C1796       C  0.88069149  0.10886632  0.06912993    -0.12700
C1797       C  0.87143734  0.10109134  0.09065957     0.05900
C1798       C  0.85663598  0.09541834  0.08753256    -0.08600
C1799       C  0.85119751  0.09696567  0.06222579     0.06700
C1800       C  0.86051117  0.10494170  0.04097485    -0.13000
Br1801     Br  0.88541222  0.09674293  0.50173179    -0.05100
Br1802     Br  0.90005488  0.16399127  0.50391328     0.00600
Br1803     Br  0.87937123  0.09933640  0.12496393     0.01000
Br1804     Br  0.85315266  0.10770497  0.00686931    -0.03400
Br1805     Br  0.90465074  0.11872277  0.45127371     0.01100
Br1806     Br  0.88222717  0.14225344  0.05511955    -0.02700
Br1807     Br  0.90090151  0.11681330  0.07321008    -0.03500
Br1808     Br  0.83097947  0.08787428  0.05615710     0.00400
C1809       C  0.76591877  0.12846289  0.23129740     0.01800
C1810       C  0.78051957  0.13320094  0.23505864     0.04700
C1811       C  0.78631878  0.12510045  0.22505335    -0.11400
C1812       C  0.77763692  0.11220271  0.21136832     0.24000
C1813       C  0.76307124  0.10731044  0.20794332    -0.12000
C1814       C  0.75720660  0.11540842  0.21781885     0.05400
C1815       C  0.78404667  0.10405193  0.20004907     0.27800
C1816       C  0.79062948  0.10763499  0.17416420    -0.12700
C1817       C  0.79822653  0.10116613  0.16468628     0.05900
C1818       C  0.79905145  0.09079713  0.18098238    -0.08600
C1819       C  0.79172543  0.08669832  0.20634020     0.06700
C1820       C  0.78442460  0.09344530  0.21591905    -0.13000
Br1821     Br  0.75126761  0.08955491  0.18935505    -0.05100
Br1822     Br  0.79301992  0.15124955  0.25226069     0.00600
Br1823     Br  0.80841722  0.10767225  0.13044356     0.01000
Br1824     Br  0.77535470  0.08859884  0.25138593    -0.03400
Br1825     Br  0.73713303  0.10826485  0.21357252     0.01100
Br1826     Br  0.80634295  0.13182815  0.22931147    -0.02700
Br1827     Br  0.78973184  0.12199700  0.15234935    -0.03500
Br1828     Br  0.79136061  0.07167794  0.22817858     0.00400
C1829       C  0.75512294  0.89037531  0.02910799     0.01800
C1830       C  0.75713535  0.89559918  0.00192801     0.04700
C1831       C  0.75631888  0.88688500  0.47992630    -0.11400
C1832       C  0.75355256  0.87299166  0.48492271     0.24000
C1833       C  0.75215091  0.86796429  0.01198876    -0.12000
C1834       C  0.75309088  0.87667553  0.03407838     0.05400
C1835       C  0.75171506  0.86354156  0.46155737     0.27800
C1836       C  0.73824219  0.85531076  0.44949892    -0.12700
C1837       C  0.73655770  0.84684556  0.42647093     0.05900
C1838       C  0.74831520  0.84628214  0.41584865    -0.08600
C1839       C  0.76180055  0.85446200  0.42821347     0.06700
C1840       C  0.76347380  0.86309822  0.45096064    -0.13000
Br1841     Br  0.74840587  0.84891110  0.01859990    -0.05100
Br1842     Br  0.75998523  0.91425291  0.49425488     0.00600
Br1843     Br  0.71832553  0.83696428  0.40836587     0.01000
Br1844     Br  0.78186829  0.87439207  0.46779741    -0.03400
Br1845     Br  0.75194860  0.86985359  0.07117229     0.01100
Br1846     Br  0.75830541  0.89364861  0.44263513    -0.02700
Br1847     Br  0.72212495  0.85578385  0.46456856    -0.03500
Br1848     Br  0.77800988  0.85363599  0.41478971     0.00400
C1849       C  0.75378701  0.85097541  0.27867349     0.01800
C1850       C  0.76087040  0.85086470  0.25451302     0.04700
C1851       C  0.76233323  0.85992558  0.23256755    -0.11400
C1852       C  0.75680543  0.86910726  0.23478989     0.24000
C1853       C  0.75055342  0.86987355  0.25941677    -0.12000
C1854       C  0.74905954  0.86085790  0.28135578     0.05400
C1855       C  0.75616431  0.87684241  0.21039227     0.27800
C1856       C  0.76667743  0.89105867  0.20581991    -0.12700
C1857       C  0.76567973  0.89838771  0.18290510     0.05900
C1858       C  0.75394784  0.89157941  0.16497738    -0.08600
C1859       C  0.74351182  0.87727671  0.16950002     0.06700
C1860       C  0.74461811  0.86994702  0.19220750    -0.13000
Br1861     Br  0.74349470  0.88291314  0.26248768    -0.05100
Br1862     Br  0.76759941  0.83762882  0.25030131     0.00600
Br1863     Br  0.78011671  0.91788217  0.17687317     0.01000
Br1864     Br  0.73013852  0.85048874  0.19890799    -0.03400
Br1865     Br  0.74064009  0.86228041  0.31516615     0.01100
Br1866     Br  0.77120397  0.85932409  0.19875577    -0.02700
Br1867     Br  0.78209242  0.90056265  0.23161173    -0.03500
Br1868     Br  0.72799493  0.86741328  0.14395240     0.00400
C1869       C  0.80890986  0.03151690  0.15061621     0.01800
C1870       C  0.79414157  0.02274005  0.15419918     0.04700
C1871       C  0.78747380  0.00822507  0.14752126    -0.11400
C1872       C  0.79557484  0.00230201  0.13803866     0.24000
C1873       C  0.81039514  0.01090530  0.13555365    -0.12000
C1874       C  0.81704481  0.02551316  0.14150749     0.05400
C1875       C  0.78838942  0.98710263  0.12996354     0.27800
C1876       C  0.78518256  0.97654934  0.14989491    -0.12700
C1877       C  0.77731401  0.96210505  0.14262546     0.05900
C1878       C  0.77301667  0.95813275  0.11510421    -0.08600
C1879       C  0.77691291  0.96877068  0.09490610     0.06700
C1880       C  0.78437995  0.98320067  0.10242847    -0.13000
Br1881     Br  0.82147687  0.00263751  0.12336485    -0.05100
Br1882     Br  0.78308657  0.03045003  0.16933612     0.00600
Br1883     Br  0.77295334  0.94784950  0.17040851     0.01000
Br1884     Br  0.78894893  0.99773215  0.07515542    -0.03400
Br1885     Br  0.83715400  0.03739128  0.13526883     0.01100
Br1886     Br  0.76715092  0.99644643  0.15062514    -0.02700
Br1887     Br  0.79180934  0.98199881  0.18708769    -0.03500
Br1888     Br  0.77153278  0.96369641  0.05705805     0.00400
C1889       C  0.63341851  0.86626557  0.02388772     0.01800
C1890       C  0.64402792  0.86865978  0.00449492     0.04700
C1891       C  0.65845186  0.87661734  0.01181792    -0.11400
C1892       C  0.66236992  0.88261050  0.03818183     0.24000
C1893       C  0.65190963  0.88143073  0.05658131    -0.12000
C1894       C  0.63744971  0.87308921  0.04973727     0.05400
C1895       C  0.67721107  0.88859935  0.04786490     0.27800
C1896       C  0.68119331  0.87959127  0.06097879    -0.12700
C1897       C  0.69511001  0.88505144  0.07083330     0.05900
C1898       C  0.70510327  0.89968057  0.06808776    -0.08600
C1899       C  0.70104944  0.90870297  0.05505959     0.06700
C1900       C  0.68715329  0.90313506  0.04478520    -0.13000
Br1901     Br  0.65754385  0.89080937  0.09172973    -0.05100
Br1902     Br  0.63894281  0.86131611  0.46761471     0.00600
Br1903     Br  0.70050841  0.87215204  0.08666488     0.01000
Br1904     Br  0.68160344  0.91535304  0.02668090    -0.03400
Br1905     Br  0.62344064  0.87012961  0.07710419     0.01100
Br1906     Br  0.67290450  0.87888347  0.48619826    -0.02700
Br1907     Br  0.66743397  0.85966891  0.06538692    -0.03500
Br1908     Br  0.71423810  0.92881801  0.05259282     0.00400
O1909       O  0.72238520  0.90218128  0.60159850    -0.57300
C1910       C  0.75233155  0.89934740  0.64180262     0.75300
O1911       O  0.76145022  0.91163327  0.55512302    -0.58500
C1912       C  0.71982271  0.90527352  0.57804692     0.75300
C1913       C  0.76441076  0.94291764  0.60766618     0.77700
Cd1914     Cd  0.74808739  0.91288145  0.59523206     1.37500
O1915       O  0.74098478  0.89963649  0.63826988    -0.57300
O1916       O  0.75333233  0.93451813  0.62080369    -0.56100
C1917       C  0.75343967  0.89837614  0.55188476     0.77600
O1918       O  0.76774792  0.93757302  0.58806231    -0.58500
O1919       O  0.76201781  0.90577824  0.62423785    -0.56900
O1920       O  0.73048029  0.91294385  0.56314020    -0.56900
O1921       O  0.74344607  0.89214914  0.56888049    -0.56100
O1922       O  0.83744509  0.09169595  0.61684647    -0.57300
C1923       C  0.80864016  0.08535346  0.67307495     0.75300
O1924       O  0.82653944  0.05392368  0.66961700    -0.58500
C1925       C  0.84700901  0.08877650  0.61111890     0.75300
C1926       C  0.84972192  0.09404699  0.70097046     0.77700
Cd1927     Cd  0.82960527  0.07761397  0.65918633     1.37500
O1928       O  0.81058354  0.08312241  0.64839969    -0.57300
O1929       O  0.84843845  0.09950520  0.67902264    -0.56100
C1930       C  0.81568064  0.04705180  0.65463461     0.77600
O1931       O  0.84214533  0.08067422  0.70329922    -0.58500
O1932       O  0.81577624  0.08316346  0.69087957    -0.56900
O1933       O  0.84809798  0.08019634  0.62703635    -0.56900
O1934       O  0.81102116  0.05420670  0.64266157    -0.56100
O1935       O  0.09615130  0.27437008  0.84387920    -0.57300
C1936       C  0.09643219  0.24310569  0.88530629     0.75300
O1937       O  0.05864869  0.22960214  0.83103328    -0.58500
C1938       C  0.08938594  0.27672677  0.82548503     0.75300
C1939       C  0.09758108  0.24381504  0.79285233     0.77700
Cd1940     Cd  0.08359892  0.24851032  0.83862903     1.37500
O1941       O  0.09706651  0.25491316  0.88175682    -0.57300
O1942       O  0.10409506  0.25311911  0.81100805    -0.56100
C1943       C  0.05385906  0.23276267  0.85184620     0.77600
O1944       O  0.08428053  0.23616415  0.79587016    -0.58500
O1945       O  0.08940528  0.23355978  0.86774247    -0.56900
O1946       O  0.07946792  0.26591931  0.81382078    -0.56900
O1947       O  0.06273065  0.24318847  0.86600149    -0.56100
O1948       O  0.90994020  0.16526746  0.86437481    -0.57300
C1949       C  0.91058689  0.18755645  0.92505913     0.75300
O1950       O  0.91894145  0.16151089  0.96014945    -0.58500
C1951       C  0.90793348  0.15290309  0.86055494     0.75300
C1952       C  0.95025449  0.18066796  0.90194852     0.77700
Cd1953     Cd  0.92010021  0.16789790  0.91091492     1.37500
O1954       O  0.90248340  0.17571380  0.91387076    -0.57300
O1955       O  0.94310253  0.18597595  0.89263881    -0.56100
C1956       C  0.90823973  0.14922063  0.95754239     0.77600
O1957       O  0.94349773  0.16924639  0.91542773    -0.58500
O1958       O  0.92327579  0.19055932  0.92887627    -0.56900
O1959       O  0.91217068  0.14786194  0.87929414    -0.56900
O1960       O  0.90352215  0.14545399  0.93348613    -0.56100
O1961       O  0.16670539  0.89514679  0.88150865    -0.57300
C1962       C  0.19341082  0.90196201  0.82211432     0.75300
O1963       O  0.16257646  0.90859953  0.79117081    -0.58500
C1964       C  0.15489718  0.89440927  0.88566533     0.75300
C1965       C  0.18354998  0.93802440  0.85022264     0.77700
Cd1966     Cd  0.17171606  0.90836045  0.83789499     1.37500
O1967       O  0.18464592  0.89523465  0.84103140    -0.57300
O1968       O  0.18943721  0.93116298  0.85818388    -0.56100
C1969       C  0.15362026  0.89545697  0.79074707     0.77600
O1970       O  0.17215658  0.93124952  0.83669929    -0.58500
O1971       O  0.19276447  0.91229561  0.81183505    -0.56900
O1972       O  0.15128782  0.90077997  0.86855821    -0.56900
O1973       O  0.15274813  0.88858991  0.81226076    -0.56100
O1974       O  0.24817701  0.09216111  0.89105656    -0.57300
C1975       C  0.27815493  0.08031621  0.92285190     0.75300
O1976       O  0.23107375  0.07267882  0.94146783    -0.58500
C1977       C  0.24813339  0.08869424  0.86634594     0.75300
C1978       C  0.23283824  0.04171171  0.89869642     0.77700
Cd1979     Cd  0.24901293  0.07173652  0.91129754     1.37500
O1980       O  0.27474902  0.08631566  0.90450007    -0.57300
O1981       O  0.24616980  0.04883358  0.89635134    -0.56100
C1982       C  0.23975780  0.07927005  0.96065440     0.77600
O1983       O  0.22685427  0.04838306  0.90707457    -0.58500
O1984       O  0.26804333  0.06991845  0.93513103    -0.56900
O1985       O  0.24859124  0.07747419  0.86227683    -0.56900
O1986       O  0.25220520  0.08149249  0.95750852    -0.56100
O1987       O  0.26098881  0.15160377  0.62074942    -0.57300
C1988       C  0.28514041  0.18347713  0.66649497     0.75300
O1989       O  0.23687147  0.17007103  0.66522974    -0.58500
C1990       C  0.24845183  0.14447242  0.61149219     0.75300
C1991       C  0.24876522  0.14558250  0.70288330     0.77700
Cd1992     Cd  0.25551092  0.16417445  0.65619913     1.37500
O1993       O  0.28093616  0.17876672  0.64248138    -0.57300
O1994       O  0.25319287  0.15867978  0.70564424    -0.56100
C1995       C  0.24110359  0.18000529  0.64784627     0.77600
O1996       O  0.24650325  0.14091081  0.67860907    -0.58500
O1997       O  0.27574914  0.17972843  0.68476076    -0.56900
O1998       O  0.23928031  0.14685021  0.62220002    -0.56900
O1999       O  0.25213570  0.18278469  0.63451492    -0.56100
O2000       O  0.18585386  0.27311088  0.58770790    -0.57300
C2001       C  0.15660855  0.24267474  0.63555177     0.75300
O2002       O  0.16054754  0.23318184  0.54712231    -0.58500
C2003       C  0.19638960  0.27547550  0.57309577     0.75300
C2004       C  0.18893318  0.23206773  0.60201237     0.77700
Cd2005     Cd  0.17436724  0.24724077  0.58821287     1.37500
O2006       O  0.16832060  0.25399502  0.63219808    -0.57300
O2007       O  0.19163584  0.24347204  0.61387267    -0.56100
C2008       C  0.15663220  0.24194133  0.54040544     0.77600
O2009       O  0.17949027  0.22765439  0.58347299    -0.58500
O2010       O  0.15317640  0.23327785  0.61728900    -0.56900
O2011       O  0.19709619  0.26466241  0.56610364    -0.56900
O2012       O  0.16071635  0.25261261  0.55573117    -0.56100
O2013       O  0.09084394  0.82473848  0.63625525    -0.57300
C2014       C  0.09025913  0.79619489  0.58158269     0.75300
O2015       O  0.05677663  0.81281800  0.58367949    -0.58500
C2016       C  0.09429754  0.83757664  0.63275444     0.75300
C2017       C  0.09437235  0.83299487  0.54112743     0.77700
Cd2018     Cd  0.08121119  0.81675870  0.58988882     1.37500
O2019       O  0.09405110  0.80428776  0.60226533    -0.57300
O2020       O  0.10125791  0.83115536  0.56001658    -0.56100
C2021       C  0.05114763  0.80343622  0.60216593     0.77600
O2022       O  0.08108123  0.82732624  0.54450883    -0.58500
O2023       O  0.08128998  0.79672418  0.56576834    -0.56900
O2024       O  0.09135568  0.84078700  0.60970594    -0.56900
O2025       O  0.05923820  0.79992038  0.61408020    -0.56100
O2026       O  0.90484777  0.71396846  0.64535849    -0.57300
C2027       C  0.90632958  0.74779024  0.60825209     0.75300
O2028       O  0.91452373  0.75190693  0.69656547    -0.58500
C2029       C  0.90742803  0.71041231  0.66845636     0.75300
C2030       C  0.94700981  0.75470901  0.64884092     0.77700
Cd2031     Cd  0.91652084  0.73966411  0.65552214     1.37500
O2032       O  0.90604771  0.73604955  0.60940748    -0.57300
O2033       O  0.93872796  0.74471520  0.63316822    -0.56100
C2034       C  0.90113305  0.74435792  0.69800099     0.77600
O2035       O  0.94130238  0.75750603  0.66859587    -0.58500
O2036       O  0.91189364  0.75607500  0.62840400    -0.56900
O2037       O  0.91480073  0.72042578  0.68493716    -0.56900
O2038       O  0.89503498  0.73501495  0.67967802    -0.56100
O2039       O  0.83223156  0.73488889  0.85959761    -0.57300
C2040       C  0.80552648  0.71230770  0.92143554     0.75300
O2041       O  0.84123021  0.75384675  0.94656589    -0.58500
C2042       C  0.84414937  0.74609114  0.85698150     0.75300
C2043       C  0.81275168  0.75584626  0.89587278     0.77700
Cd2044     Cd  0.82731565  0.74044388  0.90569444     1.37500
O2045       O  0.81545597  0.71436319  0.90532476    -0.57300
O2046       O  0.81240738  0.74690787  0.87891948    -0.56100
C2047       C  0.84686746  0.74624668  0.95028673     0.77600
O2048       O  0.82003135  0.75788471  0.91746176    -0.58500
O2049       O  0.80529454  0.72323823  0.92922395    -0.56900
O2050       O  0.84812081  0.75487888  0.87657294    -0.56900
O2051       O  0.84380751  0.73649521  0.93302397    -0.56100
O2052       O  0.73634719  0.82463887  0.88997429    -0.57300
C2053       C  0.71445654  0.79815387  0.82990788     0.75300
O2054       O  0.75940895  0.83741622  0.81025263    -0.58500
C2055       C  0.74649931  0.83729979  0.89171305     0.75300
C2056       C  0.75864821  0.80623580  0.85604652     0.77700
Cd2057     Cd  0.74275272  0.82008493  0.84431640     1.37500
O2058       O  0.71683997  0.80791982  0.84675283    -0.57300
O2059       O  0.75193183  0.80850360  0.87453728    -0.56100
C2060       C  0.75035465  0.84025826  0.80039691     0.77600
O2061       O  0.75815895  0.81046279  0.83207365    -0.58500
O2062       O  0.72522405  0.79817149  0.82025651    -0.56900
O2063       O  0.75496480  0.84191720  0.87163529    -0.56900
O2064       O  0.73799863  0.83349077  0.81028107    -0.56100
O2065       O  0.76486259  0.16496354  0.79862412    -0.57300
C2066       C  0.76010843  0.13756020  0.74020242     0.75300
O2067       O  0.72649975  0.15097832  0.74846372    -0.58500
C2068       C  0.76561008  0.17688337  0.80057764     0.75300
C2069       C  0.76416478  0.17696036  0.70908827     0.77700
Cd2070     Cd  0.75185271  0.15810381  0.75521349     1.37500
O2071       O  0.76335449  0.14387322  0.76306537    -0.57300
O2072       O  0.77143408  0.17430251  0.72577855    -0.56100
C2073       C  0.72207399  0.14352612  0.77001920     0.77600
O2074       O  0.75101699  0.17129400  0.71407495    -0.58500
O2075       O  0.75210904  0.13992953  0.72493732    -0.56900
O2076       O  0.75985516  0.18020038  0.78161768    -0.56900
O2077       O  0.73128294  0.14258743  0.78419599    -0.56100
O2078       O  0.58255651  0.05307577  0.81678444    -0.57300
C2079       C  0.57426507  0.08226828  0.77647836     0.75300
O2080       O  0.58743812  0.09181394  0.86385782    -0.58500
C2081       C  0.58197397  0.05006211  0.84203977     0.75300
C2082       C  0.61778743  0.09293486  0.81540754     0.77700
Cd2083     Cd  0.58754777  0.07773922  0.82401973     1.37500
O2084       O  0.57074121  0.06993778  0.78489971    -0.57300
O2085       O  0.60952881  0.08182373  0.80217604    -0.56100
C2086       C  0.57427932  0.08393586  0.86833830     0.77600
O2087       O  0.61210904  0.09704645  0.83300270    -0.58500
O2088       O  0.58408023  0.09246000  0.78965731    -0.56900
O2089       O  0.58447477  0.05998750  0.85850027    -0.56900
O2090       O  0.56738310  0.07390577  0.85162068    -0.56100
O2091       O  0.50416974  0.07011584  0.52942215    -0.57300
C2092       C  0.47809545  0.04675539  0.58826398     0.75300
O2093       O  0.50358602  0.08359347  0.62112794    -0.58500
C2094       C  0.51508997  0.08222784  0.52617962     0.75300
C2095       C  0.48128239  0.09005746  0.55795778     0.77700
Cd2096     Cd  0.49685308  0.07596872  0.57281598     1.37500
O2097       O  0.48784644  0.05013270  0.57079667    -0.57300
O2098       O  0.47826386  0.07813751  0.54808871    -0.56100
C2099       C  0.51518447  0.08359303  0.61998767     0.77600
O2100       O  0.49149424  0.09549864  0.57485444    -0.58500
O2101       O  0.47657971  0.05673848  0.59752420    -0.56900
O2102       O  0.51733537  0.09154462  0.54403984    -0.56900
O2103       O  0.51852349  0.08082674  0.59700146    -0.56100
O2104       O  0.38462452  0.14201753  0.49518348    -0.57300
C2105       C  0.41441647  0.16961580  0.53787073     0.75300
O2106       O  0.43146561  0.14933325  0.48764947    -0.58500
C2107       C  0.38118246  0.13328761  0.97565424     0.75300
C2108       C  0.41746002  0.17192645  0.94442411     0.77700
Cd2109     Cd  0.41041966  0.15259296  0.49015389     1.37500
O2110       O  0.40331717  0.15765422  0.53464896    -0.57300
O2111       O  0.41528098  0.17496101  0.96822381    -0.56100
C2112       C  0.42670580  0.13891002  0.50400542     0.77600
O2113       O  0.41695101  0.16012801  0.94163679    -0.58500
O2114       O  0.42379585  0.17348165  0.51942464    -0.56900
O2115       O  0.39121385  0.13289284  0.96349432    -0.56900
O2116       O  0.41445439  0.13472374  0.51347561    -0.56100
O2117       O  0.40866737  0.23134777  0.78276448    -0.57300
C2118       C  0.38724448  0.23820391  0.72421165     0.75300
O2119       O  0.43280240  0.27099674  0.73175310    -0.58500
C2120       C  0.42090649  0.23342105  0.78831425     0.75300
C2121       C  0.42081149  0.23083976  0.69754308     0.77700
Cd2122     Cd  0.41536802  0.24558244  0.74076247     1.37500
O2123       O  0.38968982  0.23471665  0.74751068    -0.57300
O2124       O  0.40994744  0.22507311  0.71261460    -0.56100
C2125       C  0.42941678  0.27547185  0.75274931     0.77600
O2126       O  0.42965074  0.24375856  0.70261463    -0.58500
O2127       O  0.39790314  0.24610522  0.70950664    -0.56900
O2128       O  0.43076210  0.24136666  0.77204285    -0.56900
O2129       O  0.41942840  0.26626920  0.76725380    -0.56100
O2130       O  0.47684066  0.41760446  0.81572399    -0.57300
C2131       C  0.51136788  0.42268268  0.78041390     0.75300
O2132       O  0.50677939  0.40804953  0.86526518    -0.58500
C2133       C  0.47227257  0.41651416  0.83997084     0.75300
C2134       C  0.47808253  0.37776568  0.81302262     0.77700
Cd2135     Cd  0.49241337  0.40788706  0.82534222     1.37500
O2136       O  0.49901667  0.42093248  0.78153209    -0.57300
O2137       O  0.47342392  0.38569576  0.80500246    -0.56100
C2138       C  0.51088243  0.42082531  0.87156654     0.77600
O2139       O  0.48910020  0.38356342  0.82783400    -0.58500
O2140       O  0.51486627  0.41729053  0.79968315    -0.56900
O2141       O  0.47598540  0.41014959  0.85696155    -0.56900
O2142       O  0.50609841  0.42709464  0.85700212    -0.56100
O2143       O  0.56803571  0.49123119  0.53495456    -0.57300
C2144       C  0.57595080  0.52043809  0.59163550     0.75300
O2145       O  0.58292144  0.48381919  0.61409706    -0.58500
C2146       C  0.56888441  0.48024369  0.53066823     0.75300
C2147       C  0.61342904  0.51393650  0.56716780     0.84900
Cd2148     Cd  0.58308329  0.49910545  0.57622178     1.37500
O2149       O  0.57514632  0.51644897  0.56700291    -0.57300
O2150       O  0.60500795  0.51503353  0.55080605    -0.56100
C2151       C  0.57007628  0.47927062  0.62035918     0.77600
O2152       O  0.60787570  0.50616932  0.58798549    -0.58500
O2153       O  0.58066774  0.51506686  0.60874618    -0.56900
O2154       O  0.57673488  0.47816875  0.54688817    -0.56900
O2155       O  0.56349533  0.48383490  0.60609403    -0.56100
O2156       O  0.76005125  0.59179823  0.55301493    -0.57300
C2157       C  0.75633136  0.61297374  0.99344474     0.75300
O2158       O  0.74757507  0.57691924  0.96090463    -0.58500
C2159       C  0.76123046  0.58092875  0.55671707     0.75300
C2160       C  0.71782959  0.56793753  0.52353617     0.77700
Cd2161     Cd  0.74748366  0.58420796  0.50910068     1.37500
O2162       O  0.76161097  0.61011493  0.51391242    -0.57300
O2163       O  0.72593810  0.58020667  0.53297432    -0.56100
C2164       C  0.75943718  0.57749106  0.96275777     0.77600
O2165       O  0.72337545  0.56313335  0.50714381    -0.58500
O2166       O  0.74637941  0.60253777  0.98101926    -0.56900
O2167       O  0.75567669  0.57131963  0.53863115    -0.56900
O2168       O  0.76535239  0.58054958  0.98603850    -0.56100
O2169       O  0.83035679  0.58968317  0.80265060    -0.57300
C2170       C  0.85928933  0.61107429  0.74363375     0.75300
O2171       O  0.84348038  0.56365555  0.74902400    -0.58500
C2172       C  0.82044754  0.57739637  0.80889334     0.75300
C2173       C  0.81811904  0.57762502  0.71731187     0.77700
Cd2174     Cd  0.83815329  0.58272124  0.76072658     1.37500
O2175       O  0.85707091  0.60777497  0.76880619    -0.57300
O2176       O  0.82147611  0.58717971  0.73520398    -0.56100
C2177       C  0.85357845  0.56751314  0.76596151     0.77600
O2178       O  0.82363262  0.56983546  0.71996032    -0.58500
O2179       O  0.85230531  0.60111318  0.72687918    -0.56900
O2180       O  0.81906315  0.56745063  0.79349952    -0.56900
O2181       O  0.85646279  0.57826376  0.78039968    -0.56100
O2182       O  0.95085639  0.51314800  0.82230669    -0.57300
C2183       C  0.92203500  0.48877198  0.77135928     0.75300
O2184       O  0.91707209  0.49753168  0.86809735    -0.58500
C2185       C  0.95402596  0.52315881  0.83902458     0.75300
C2186       C  0.90924809  0.51856809  0.80701199     0.77700
Cd2187     Cd  0.92528987  0.50483288  0.82039302     1.37500
O2188       O  0.93238392  0.50125354  0.77449725    -0.57300
O2189       O  0.92150825  0.52286219  0.79741143    -0.56100
C2190       C  0.91718626  0.48599288  0.86667790     0.77600
O2191       O  0.90439745  0.50799532  0.82300787    -0.58500
O2192       O  0.91300250  0.48392666  0.79052548    -0.56900
O2193       O  0.94410443  0.52535191  0.84579380    -0.56900
O2194       O  0.92008030  0.48284088  0.84359785    -0.56100
O2195       O  0.83413928  0.23611367  0.55039458    -0.57300
C2196       C  0.86177756  0.23929476  0.99295181     0.75300
O2197       O  0.82921971  0.24801475  0.96388394    -0.58500
C2198       C  0.82293830  0.23681337  0.55230233     0.75300
C2199       C  0.85783399  0.27924344  0.51355297     0.77700
Cd2200     Cd  0.84206147  0.24868826  0.50640632     1.37500
O2201       O  0.85616248  0.23717049  0.51647489    -0.57300
O2202       O  0.85973746  0.27101344  0.52906036    -0.56100
C2203       C  0.82341255  0.23469334  0.96104242     0.77600
O2204       O  0.84878191  0.27337978  0.49460912    -0.58500
O2205       O  0.85922319  0.24674463  0.97653602    -0.56900
O2206       O  0.82076918  0.24350481  0.53344893    -0.56900
O2207       O  0.82567550  0.22802013  0.97975318    -0.56100
O2208       O  0.94995503  0.42370113  0.56243665    -0.57300
C2209       C  0.91950080  0.42690353  0.52201547     0.75300
O2210       O  0.90576608  0.38899498  0.57608956    -0.58500
C2211       C  0.95234146  0.42079762  0.58633058     0.75300
C2212       C  0.91859180  0.42878589  0.61170207     0.77700
Cd2213     Cd  0.92445876  0.41415488  0.56917707     1.37500
O2214       O  0.93184973  0.42997991  0.52941156    -0.57300
O2215       O  0.92901956  0.43491938  0.59563340    -0.56100
C2216       C  0.90982557  0.38412673  0.55674208     0.77600
O2217       O  0.91043023  0.41558466  0.60797137    -0.58500
O2218       O  0.90936410  0.41762602  0.53616435    -0.56900
O2219       O  0.94168914  0.41405151  0.60180492    -0.56900
O2220       O  0.92075963  0.39305382  0.54385433    -0.56100
O2221       O  0.05659334  0.56561659  0.92767248    -0.57300
C2222       C  0.08707127  0.56767298  0.97415440     0.75300
O2223       O  0.09598816  0.57889709  0.88378935    -0.58500
C2224       C  0.05418677  0.57196131  0.90851649     0.75300
C2225       C  0.09979600  0.60949528  0.93419868     0.77700
Cd2226     Cd  0.08263792  0.57934875  0.92458029     1.37500
O2227       O  0.07789029  0.57149497  0.97253893    -0.57300
O2228       O  0.08939971  0.60149632  0.94931198    -0.56100
C2229       C  0.08903237  0.56552085  0.88119139     0.77600
O2230       O  0.10228345  0.60360745  0.91433153    -0.58500
O2231       O  0.09453818  0.56963353  0.95300927    -0.56900
O2232       O  0.06494086  0.58219845  0.89741601    -0.56900
O2233       O  0.07941308  0.55874074  0.89869617    -0.56100
O2234       O  0.15086824  0.75631135  0.99145836    -0.57300
C2235       C  0.18065745  0.75702909  0.94158129     0.75300
O2236       O  0.17995113  0.74552551  0.52926217    -0.58500
C2237       C  0.14238846  0.74892260  0.51032469     0.75300
C2238       C  0.15090022  0.71383396  0.97854676     0.77700
Cd2239     Cd  0.16425473  0.74375940  0.99037713     1.37500
O2240       O  0.16816811  0.75479850  0.94447210    -0.57300
O2241       O  0.14687955  0.72174756  0.96751699    -0.56100
C2242       C  0.18342438  0.75818993  0.53523766     0.77600
O2243       O  0.16108652  0.71968228  0.99547013    -0.58500
O2244       O  0.18541487  0.75283496  0.96091050    -0.56900
O2245       O  0.14341484  0.73847283  0.51875634    -0.56900
O2246       O  0.17810787  0.76386159  0.52043823    -0.56100
O2247       O  0.16814149  0.39930694  0.69901602    -0.57300
C2248       C  0.14128377  0.37723839  0.76155673     0.75300
O2249       O  0.17861218  0.41978771  0.78172058    -0.58500
C2250       C  0.18066035  0.40974336  0.69794227     0.75300
C2251       C  0.14679450  0.42011100  0.73336046     0.77700
Cd2252     Cd  0.16215477  0.40522798  0.74407282     1.37500
O2253       O  0.14842291  0.37931456  0.73983114    -0.57300
O2254       O  0.14463295  0.40936174  0.71967647    -0.56100
C2255       C  0.18086057  0.41000014  0.78975018     0.77600
O2256       O  0.15606244  0.42405053  0.75214552    -0.58500
O2257       O  0.14299345  0.38814023  0.77413100    -0.56900
O2258       O  0.18440054  0.41846080  0.71757991    -0.56900
O2259       O  0.17469786  0.39848097  0.77657813    -0.56100
O2260       O  0.07393835  0.49227912  0.72002288    -0.57300
C2261       C  0.05297137  0.46867226  0.65113543     0.75300
O2262       O  0.09431034  0.50194371  0.63332799    -0.58500
C2263       C  0.08460673  0.50455045  0.72312861     0.75300
C2264       C  0.09498901  0.47248761  0.68573279     0.77700
Cd2265     Cd  0.08051618  0.48808053  0.67375786     1.37500
O2266       O  0.05442116  0.47310104  0.67558349    -0.57300
O2267       O  0.08294013  0.46896135  0.69547429    -0.56100
C2268       C  0.08827841  0.50931347  0.63189510     0.77600
O2269       O  0.10041244  0.48315656  0.66991912    -0.58500
O2270       O  0.06421498  0.47269974  0.63755521    -0.56900
O2271       O  0.09337411  0.50903024  0.70353993    -0.56900
O2272       O  0.07912510  0.50705996  0.65009320    -0.56100
O2273       O  0.24436590  0.83054478  0.69622602    -0.57300
C2274       C  0.24542969  0.85352419  0.75430478     0.75300
O2275       O  0.25106063  0.82824410  0.78967178    -0.58500
C2276       C  0.24287294  0.81833577  0.69292046     0.75300
C2277       C  0.28672567  0.84928172  0.73086622     0.77700
Cd2278     Cd  0.25644382  0.83502259  0.74076235     1.37500
O2279       O  0.24073451  0.84500970  0.73427151    -0.57300
O2280       O  0.27871842  0.85301963  0.71938176    -0.56100
C2281       C  0.24288950  0.81517007  0.78502290     0.77600
O2282       O  0.28082458  0.83884121  0.74711234    -0.58500
O2283       O  0.25574302  0.85405252  0.76734179    -0.56900
O2284       O  0.24839033  0.81422088  0.71096306    -0.56900
O2285       O  0.24201894  0.81122797  0.76040972    -0.56100
O2286       O  0.43249368  0.94648433  0.68499246    -0.57300
C2287       C  0.43500948  0.91658521  0.73007553     0.75300
O2288       O  0.39719783  0.90216891  0.67073030    -0.58500
C2289       C  0.42679251  0.94768815  0.66322751     0.75300
C2290       C  0.43679588  0.91528096  0.63939055     0.77700
Cd2291     Cd  0.42174562  0.92046495  0.68211419     1.37500
O2292       O  0.43576162  0.92832413  0.72477130    -0.57300
O2293       O  0.44164615  0.92705901  0.65143677    -0.56100
C2294       C  0.39166223  0.90424172  0.69171286     0.77600
O2295       O  0.42466965  0.90554305  0.64703950    -0.58500
O2296       O  0.42776717  0.90651886  0.71364851    -0.56900
O2297       O  0.41788319  0.93624188  0.65166343    -0.56900
O2298       O  0.39997322  0.91386322  0.70807052    -0.56100
O2299       O  0.59287090  0.82587296  0.96427173    -0.57300
C2300       C  0.61834690  0.85582797  0.51787645     0.75300
O2301       O  0.57361409  0.84460277  0.01681588    -0.58500
C2302       C  0.58154017  0.81397217  0.96494394     0.75300
C2303       C  0.58301359  0.81766519  0.55762033     0.77700
Cd2304     Cd  0.58914892  0.83449857  0.00836128     1.37500
O2305       O  0.61483809  0.84424289  0.00584532    -0.57300
O2306       O  0.59448199  0.82225383  0.54454907    -0.56100
C2307       C  0.57535664  0.85024374  0.99330820     0.77600
O2308       O  0.57432564  0.82121400  0.54853128    -0.58500
O2309       O  0.60828102  0.85774945  0.52497059    -0.56900
O2310       O  0.57357559  0.81160432  0.98544214    -0.56900
O2311       O  0.58332895  0.84849524  0.97694557    -0.56100
O2312       O  0.52950071  0.94836059  0.94277982    -0.57300
C2313       C  0.49644602  0.91814688  0.98023399     0.75300
O2314       O  0.50218190  0.91152375  0.88921183    -0.58500
C2315       C  0.53503851  0.95171404  0.91919036     0.75300
C2316       C  0.52822554  0.90666309  0.94234336     0.77700
Cd2317     Cd  0.51417296  0.92291271  0.93294678     1.37500
O2318       O  0.50820523  0.92941433  0.97698856    -0.57300
O2319       O  0.53323528  0.91916688  0.95124720    -0.56100
C2320       C  0.49564663  0.91836552  0.88725361     0.77600
O2321       O  0.51686973  0.90172140  0.92859417    -0.58500
O2322       O  0.49298536  0.90868571  0.96208682    -0.56900
O2323       O  0.53160325  0.94160161  0.90251803    -0.56900
O2324       O  0.49744528  0.92689215  0.90643019    -0.56100
O2325       O  0.24019656  0.37961454  0.98484666    -0.57300
C2326       C  0.23978433  0.40868692  0.94724205     0.75300
O2327       O  0.24751818  0.40548677  0.54412312    -0.58500
C2328       C  0.24425823  0.37595314  0.50610808     0.75300
C2329       C  0.28346395  0.42295715  0.98772406     0.77700
Cd2330     Cd  0.25329451  0.40546270  0.99547961     1.37500
O2331       O  0.23304880  0.40341584  0.96926944    -0.57300
O2332       O  0.27632135  0.41089678  0.97669797    -0.56100
C2333       C  0.24207704  0.41328243  0.54132996     0.77600
O2334       O  0.27682918  0.42694906  0.00319855    -0.58500
O2335       O  0.25273127  0.41215972  0.94713251    -0.56900
O2336       O  0.25290789  0.38592833  0.52136023    -0.56900
O2337       O  0.24286448  0.41848759  0.51772690    -0.56100
O2338       O  0.42796403  0.49519911  0.97584591    -0.57300
C2339       C  0.42616813  0.47009159  0.91339832     0.75300
O2340       O  0.39363454  0.48786852  0.92875605    -0.58500
C2341       C  0.43055559  0.50788663  0.97677880     0.75300
C2342       C  0.43024239  0.50814451  0.88349542     0.77700
Cd2343     Cd  0.41738171  0.49000007  0.92970426     1.37500
O2344       O  0.42710072  0.47401276  0.93812368    -0.57300
O2345       O  0.43731544  0.50846292  0.90437795    -0.56100
C2346       C  0.38727165  0.47589220  0.94047862     0.77600
O2347       O  0.41693160  0.49980948  0.88416983    -0.58500
O2348       O  0.42060026  0.47490266  0.89703793    -0.56900
O2349       O  0.42675522  0.51220125  0.95611729    -0.56900
O2350       O  0.39472512  0.47036964  0.94641550    -0.56100
O2351       O  0.49953291  0.56372192  0.71959225    -0.57300
C2352       C  0.52961337  0.57313801  0.66462326     0.75300
O2353       O  0.49372870  0.57966801  0.64078410    -0.58500
C2354       C  0.49055638  0.56707968  0.72738380     0.75300
C2355       C  0.52249825  0.60969725  0.69173559     0.77700
Cd2356     Cd  0.50810359  0.57982027  0.68022875     1.37500
O2357       O  0.52603128  0.57288293  0.68936841    -0.57300
O2358       O  0.52554863  0.60137857  0.70414243    -0.56100
C2359       C  0.48753208  0.56638023  0.63697490     0.77600
O2360       O  0.51326090  0.60436083  0.67292718    -0.58500
O2361       O  0.52390232  0.57741196  0.64730830    -0.56900
O2362       O  0.48980285  0.57650798  0.71358853    -0.56900
O2363       O  0.49074773  0.55944115  0.65342812    -0.56100
O2364       O  0.59064552  0.75703605  0.71774961    -0.57300
C2365       C  0.61306301  0.75008512  0.77171695     0.75300
O2366       O  0.57255777  0.74080968  0.80396768    -0.58500
C2367       C  0.57849022  0.75535045  0.71302380     0.75300
C2368       C  0.56972609  0.71255436  0.74646193     0.77700
Cd2369     Cd  0.58432164  0.74236709  0.75940993     1.37500
O2370       O  0.60980152  0.75420071  0.75002324    -0.57300
O2371       O  0.58198752  0.72105592  0.73742554    -0.56100
C2372       C  0.57928391  0.75405325  0.80825701     0.77600
O2373       O  0.56422249  0.71776896  0.76195655    -0.58500
O2374       O  0.60293504  0.74169274  0.78704195    -0.56900
O2375       O  0.56883079  0.74754507  0.72976244    -0.56900
O2376       O  0.58776245  0.76171207  0.78968970    -0.56100
C2377       C  0.56219359  0.69737071  0.73891436     0.01800
C2378       C  0.56116716  0.69341065  0.71105462     0.04700
C2379       C  0.55411975  0.67899050  0.70374348    -0.11400
C2380       C  0.54827868  0.66844766  0.72419612     0.24000
C2381       C  0.54917941  0.67234267  0.75200200    -0.12000
C2382       C  0.55606526  0.68678042  0.75936974     0.05400
C2383       C  0.54160366  0.65328855  0.71634410     0.27800
C2384       C  0.52672747  0.64481029  0.71474320    -0.12700
C2385       C  0.52047537  0.63051138  0.70676239     0.05900
C2386       C  0.52910196  0.62477431  0.69950039    -0.08600
C2387       C  0.54399201  0.63329973  0.70095561     0.06700
C2388       C  0.55021735  0.64747443  0.70970721    -0.13000
Br2389     Br  0.54118972  0.65784423  0.77998057    -0.05100
Br2390     Br  0.56893774  0.70766109  0.68256506     0.00600
Br2391     Br  0.50008315  0.61858660  0.70755693     0.01000
Br2392     Br  0.57058800  0.65901129  0.71262944    -0.03400
Br2393     Br  0.55777650  0.69193656  0.79765366     0.01100
Br2394     Br  0.55237302  0.67357624  0.66559566    -0.02700
Br2395     Br  0.51494082  0.65283261  0.72343776    -0.03500
Br2396     Br  0.55592158  0.62579787  0.68980690     0.00400
C2397       C  0.47737145  0.55927639  0.61410224     0.01800
C2398       C  0.48037106  0.56540405  0.58755430     0.04700
C2399       C  0.47158674  0.55786304  0.56524474    -0.11400
C2400       C  0.45979380  0.54424107  0.56926610     0.24000
C2401       C  0.45620860  0.53851153  0.59585013    -0.12000
C2402       C  0.46504641  0.54587213  0.61818272     0.05400
C2403       C  0.45227264  0.53517136  0.54532219     0.27800
C2404       C  0.44064101  0.53541973  0.53335161    -0.12700
C2405       C  0.43343661  0.52647223  0.51098966     0.05900
C2406       C  0.43791275  0.51724304  0.50048773    -0.08600
C2407       C  0.44970890  0.51717442  0.51249330     0.06700
C2408       C  0.45679368  0.52606651  0.53487184    -0.13000
Br2409     Br  0.43931071  0.52029428  0.60126047    -0.05100
Br2410     Br  0.49723333  0.58346924  0.58070100     0.00600
Br2411     Br  0.41707876  0.52654760  0.49585622     0.01000
Br2412     Br  0.47286902  0.52590441  0.55132317    -0.03400
Br2413     Br  0.46010209  0.53725171  0.65409251     0.01100
Br2414     Br  0.47600137  0.56583637  0.52876536    -0.02700
Br2415     Br  0.43459305  0.54797700  0.54792740    -0.03500
Br2416     Br  0.45689581  0.50558528  0.49758476     0.00400
C2417       C  0.48129408  0.56007516  0.75109030     0.01800
C2418       C  0.48725681  0.55910758  0.77614816     0.04700
C2419       C  0.47838239  0.55096028  0.79776300    -0.11400
C2420       C  0.46355262  0.54373553  0.79431807     0.24000
C2421       C  0.45757404  0.54504891  0.76963972    -0.12000
C2422       C  0.46642501  0.55346798  0.74823305     0.05400
C2423       C  0.45425398  0.53441215  0.81638608     0.27800
C2424       C  0.45064952  0.52006549  0.81715527    -0.12700
C2425       C  0.44220312  0.51127157  0.83859270     0.05900
C2426       C  0.43743384  0.51684874  0.85933706    -0.08600
C2427       C  0.44075597  0.53109924  0.85821863     0.06700
C2428       C  0.44917728  0.53989893  0.83671857    -0.13000
Br2429     Br  0.43725296  0.53467804  0.76478905    -0.05100
Br2430     Br  0.50757623  0.56942517  0.78128310     0.00600
Br2431     Br  0.43744855  0.49166999  0.83988898     0.01000
Br2432     Br  0.45411477  0.55954745  0.83535028    -0.03400
Br2433     Br  0.45804419  0.55541672  0.71477604     0.01100
Br2434     Br  0.48648585  0.54930966  0.83185972    -0.02700
Br2435     Br  0.45765183  0.51264059  0.78917054    -0.03500
Br2436     Br  0.43387732  0.53852185  0.88634872     0.00400
C2437       C  0.29872082  0.43196271  0.98209760     0.01800
C2438       C  0.30883053  0.43367010  0.00205455     0.04700
C2439       C  0.32338402  0.44133936  0.99566827    -0.11400
C2440       C  0.32783088  0.44753707  0.96950371     0.24000
C2441       C  0.31772429  0.44618763  0.94985781    -0.12000
C2442       C  0.30318183  0.43826601  0.95603138     0.05400
C2443       C  0.34307560  0.45487749  0.96210105     0.27800
C2444       C  0.35187230  0.46941918  0.96774175    -0.12700
C2445       C  0.36635169  0.47631050  0.96078442     0.05900
C2446       C  0.37199345  0.46875399  0.94732690    -0.08600
C2447       C  0.36306871  0.45419537  0.94139583     0.06700
C2448       C  0.34870080  0.44726124  0.94909388    -0.13000
Br2449     Br  0.32388121  0.45502751  0.91434350    -0.05100
Br2450     Br  0.30266884  0.42492541  0.53759414     0.00600
Br2451     Br  0.37854102  0.49582914  0.97155894     0.01000
Br2452     Br  0.33660885  0.42725103  0.94195298    -0.03400
Br2453     Br  0.28932612  0.43597039  0.92872225     0.01100
Br2454     Br  0.33725002  0.44298784  0.52227001    -0.02700
Br2455     Br  0.34399189  0.47981897  0.98510236    -0.03500
Br2456     Br  0.37023725  0.44376886  0.92161567     0.00400
C2457       C  0.57799896  0.80333743  0.94308018     0.01800
C2458       C  0.57800335  0.80713055  0.91538631     0.04700
C2459       C  0.57633722  0.79759859  0.89435656    -0.11400
C2460       C  0.57455292  0.78420348  0.90091555     0.24000
C2461       C  0.57356855  0.78001674  0.92856015    -0.12000
C2462       C  0.57537367  0.78959383  0.94966330     0.05400
C2463       C  0.57534941  0.77529317  0.87881987     0.27800
C2464       C  0.56306228  0.76534202  0.86468183    -0.12700
C2465       C  0.56419294  0.75783927  0.84222372     0.05900
C2466       C  0.57766036  0.76044157  0.83370681    -0.08600
C2467       C  0.58985013  0.76986148  0.84884873     0.06700
C2468       C  0.58869944  0.77733148  0.87120790    -0.13000
Br2469     Br  0.57029757  0.76133668  0.93732299    -0.05100
Br2470     Br  0.58006404  0.82529901  0.90616829     0.00600
Br2471     Br  0.54736529  0.74453943  0.82245493     0.01000
Br2472     Br  0.60548670  0.79071300  0.89109796    -0.03400
Br2473     Br  0.57541121  0.78422204  0.98744049     0.01100
Br2474     Br  0.57698082  0.80301218  0.85641885    -0.02700
Br2475     Br  0.54480688  0.76243370  0.87560663    -0.03500
Br2476     Br  0.60811488  0.77211777  0.83977953     0.00400
C2477       C  0.57991694  0.80826582  0.58168809     0.01800
C2478       C  0.56760833  0.79469679  0.58201925     0.04700
C2479       C  0.56548989  0.78508894  0.60338508    -0.11400
C2480       C  0.57565397  0.78900156  0.62444949     0.24000
C2481       C  0.58771903  0.80268856  0.62458594    -0.12000
C2482       C  0.58988938  0.81227832  0.60323262     0.05400
C2483       C  0.57429116  0.77860092  0.64571925     0.27800
C2484       C  0.56760010  0.77779586  0.67086106    -0.12700
C2485       C  0.56852081  0.76981082  0.69275253     0.05900
C2486       C  0.57593509  0.76235298  0.68932010    -0.08600
C2487       C  0.58172193  0.76236824  0.66338732     0.06700
C2488       C  0.58100090  0.77056781  0.64176806    -0.13000
Br2489     Br  0.60147917  0.80809371  0.65382980    -0.05100
Br2490     Br  0.55423357  0.78876471  0.55201466     0.00600
Br2491     Br  0.56065810  0.77022765  0.72795194     0.01000
Br2492     Br  0.58965903  0.77126701  0.60685706    -0.03400
Br2493     Br  0.60654683  0.83094363  0.60372303     0.01100
Br2494     Br  0.54896812  0.76636802  0.60335753    -0.02700
Br2495     Br  0.55766345  0.78814156  0.67542922    -0.03500
Br2496     Br  0.59044181  0.75096096  0.65706307     0.00400
C2497       C  0.56854056  0.85854854  0.98530727     0.01800
C2498       C  0.56117474  0.85582794  0.96010076     0.04700
C2499       C  0.55490140  0.86388535  0.95232477    -0.11400
C2500       C  0.55571354  0.87451926  0.96985641     0.24000
C2501       C  0.56303508  0.87725797  0.99501355    -0.12000
C2502       C  0.56960051  0.86943446  0.00257175     0.05400
C2503       C  0.54862500  0.88263796  0.96204669     0.27800
C2504       C  0.55642348  0.89605006  0.94949490    -0.12700
C2505       C  0.54978234  0.90394255  0.94302700     0.05900
C2506       C  0.53515939  0.89821659  0.94820425    -0.08600
C2507       C  0.52725763  0.88451746  0.95979812     0.06700
C2508       C  0.53403863  0.87687422  0.96711078    -0.13000
Br2509     Br  0.56394681  0.89171059  0.51916336    -0.05100
Br2510     Br  0.55898665  0.84061764  0.93663382     0.00600
Br2511     Br  0.56067858  0.92236304  0.92607518     0.01000
Br2512     Br  0.52343853  0.85853576  0.98452055    -0.03400
Br2513     Br  0.58077897  0.87431135  0.53579753     0.01100
Br2514     Br  0.54506935  0.86035977  0.91766784    -0.02700
Br2515     Br  0.57616133  0.90341949  0.94075391    -0.03500
Br2516     Br  0.50723928  0.87633889  0.96688430     0.00400
C2517       C  0.44498945  0.91331631  0.61737543     0.01800
C2518       C  0.43835299  0.90660751  0.59245818     0.04700
C2519       C  0.44655113  0.90618246  0.57060444    -0.11400
C2520       C  0.46137364  0.91264858  0.57334008     0.24000
C2521       C  0.46796334  0.91892020  0.59836344    -0.12000
C2522       C  0.45981399  0.91916687  0.62041833     0.05400
C2523       C  0.47016556  0.91379802  0.54928628     0.27800
C2524       C  0.47360253  0.90318792  0.54393337    -0.12700
C2525       C  0.48203839  0.90443371  0.52108819     0.05900
C2526       C  0.48715090  0.91638967  0.50369667    -0.08600
C2527       C  0.48359523  0.92695805  0.50907750     0.06700
C2528       C  0.47521847  0.92570491  0.53193654    -0.13000
Br2529     Br  0.48829129  0.92759871  0.60193436    -0.05100
Br2530     Br  0.41828004  0.89909933  0.58698655     0.00600
Br2531     Br  0.48711195  0.89009270  0.51455649     0.01000
Br2532     Br  0.47081152  0.94042578  0.53991995    -0.03400
Br2533     Br  0.46915350  0.92742354  0.65482531     0.01100
Br2534     Br  0.43764183  0.89724144  0.53635924    -0.02700
Br2535     Br  0.46704506  0.88721023  0.56851151    -0.03500
Br2536     Br  0.48956781  0.94287521  0.98442418     0.00400
C2537       C  0.44245881  0.91485810  0.75393411     0.01800
C2538       C  0.44163864  0.92011300  0.77992185     0.04700
C2539       C  0.44966106  0.91954910  0.80205567    -0.11400
C2540       C  0.45856260  0.91378385  0.79834809     0.24000
C2541       C  0.45902386  0.90806116  0.77277599    -0.12000
C2542       C  0.45097207  0.90854568  0.75059678     0.05400
C2543       C  0.46819102  0.91465825  0.82077511     0.27800
C2544       C  0.48143044  0.92713909  0.82394892    -0.12700
C2545       C  0.49049204  0.92826232  0.84558158     0.05900
C2546       C  0.48649476  0.91676450  0.86367983    -0.08600
C2547       C  0.47341562  0.90414896  0.86013092     0.06700
C2548       C  0.46416910  0.90316883  0.83891099    -0.13000
Br2549     Br  0.47120122  0.90008930  0.76803230    -0.05100
Br2550     Br  0.42926959  0.92778845  0.78558344     0.00600
Br2551     Br  0.50848683  0.94551457  0.85025867     0.01000
Br2552     Br  0.44582662  0.88631871  0.83508719    -0.03400
Br2553     Br  0.45254842  0.90144422  0.71529826     0.01100
Br2554     Br  0.44875211  0.92694119  0.83746546    -0.02700
Br2555     Br  0.48705763  0.94272052  0.79864881    -0.03500
Br2556     Br  0.46794706  0.88848509  0.88508997     0.00400
C2557       C  0.30217089  0.85691235  0.72565292     0.01800
C2558       C  0.30890307  0.84959405  0.71585296     0.04700
C2559       C  0.32348580  0.85712655  0.70954204    -0.11400
C2560       C  0.33146050  0.87191787  0.71372253     0.24000
C2561       C  0.32478343  0.87917709  0.72392448    -0.12000
C2562       C  0.31016712  0.87172924  0.72963112     0.05400
C2563       C  0.34689976  0.87988438  0.70764570     0.27800
C2564       C  0.35666047  0.88008231  0.72693758    -0.12700
C2565       C  0.37130848  0.88791596  0.72153644     0.05900
C2566       C  0.37627472  0.89578585  0.69701708    -0.08600
C2567       C  0.36651722  0.89562132  0.67773950     0.06700
C2568       C  0.35185315  0.88761363  0.68297420    -0.13000
Br2569     Br  0.33574633  0.89937868  0.73015397    -0.05100
Br2570     Br  0.29807887  0.82936178  0.70988296     0.00600
Br2571     Br  0.38454933  0.88737381  0.74723601     0.01000
Br2572     Br  0.33849762  0.88736380  0.65657443    -0.03400
Br2573     Br  0.30123620  0.88182147  0.74397158     0.01100
Br2574     Br  0.33254197  0.84730768  0.69449336    -0.02700
Br2575     Br  0.34992149  0.86976881  0.76097345    -0.03500
Br2576     Br  0.37325691  0.90697779  0.64483979     0.00400
C2577       C  0.19005094  0.41159352  0.81341329     0.01800
C2578       C  0.18464437  0.40148120  0.83479941     0.04700
C2579       C  0.19363479  0.40194435  0.85600418    -0.11400
C2580       C  0.20805025  0.41255647  0.85607934     0.24000
C2581       C  0.21341859  0.42287315  0.83514105    -0.12000
C2582       C  0.20442834  0.42242072  0.81382861     0.05400
C2583       C  0.21743435  0.41280636  0.87844553     0.27800
C2584       C  0.21808361  0.41958167  0.90340725    -0.12700
C2585       C  0.22576251  0.41857022  0.92567657     0.05900
C2586       C  0.23281820  0.41075359  0.92306717    -0.08600
C2587       C  0.23277009  0.40458554  0.89761287     0.06700
C2588       C  0.22500348  0.40554061  0.87538207    -0.13000
Br2589     Br  0.23316917  0.43740172  0.83554762    -0.05100
Br2590     Br  0.16475565  0.38724025  0.83569453     0.00600
Br2591     Br  0.22702936  0.42836309  0.95944647     0.01000
Br2592     Br  0.22427343  0.39649527  0.84094621    -0.03400
Br2593     Br  0.21202597  0.43617771  0.78454138     0.01100
Br2594     Br  0.18628330  0.38793783  0.88495337    -0.02700
Br2595     Br  0.20817244  0.43000714  0.90710016    -0.03500
Br2596     Br  0.24267339  0.39416805  0.89352664     0.00400
C2597       C  0.23442025  0.41537898  0.56412360     0.01800
C2598       C  0.22017785  0.41191489  0.56031772     0.04700
C2599       C  0.21221189  0.41213640  0.58272354    -0.11400
C2600       C  0.21836626  0.41571615  0.60902751     0.24000
C2601       C  0.23265896  0.41952042  0.61281367    -0.12000
C2602       C  0.24069487  0.41937070  0.59038325     0.05400
C2603       C  0.20940173  0.41449719  0.63284124     0.27800
C2604       C  0.20873729  0.42637603  0.64202307    -0.12700
C2605       C  0.19936020  0.42489973  0.66329010     0.05900
C2606       C  0.19051449  0.41143827  0.67536625    -0.08600
C2607       C  0.19138296  0.39957433  0.66618388     0.06700
C2608       C  0.20084386  0.40115229  0.64509257    -0.13000
Br2609     Br  0.24098553  0.42440739  0.64896863    -0.05100
Br2610     Br  0.21098554  0.40549620  0.52510060     0.00600
Br2611     Br  0.19818805  0.44127101  0.67443419     0.01000
Br2612     Br  0.20210845  0.38499917  0.63258845    -0.03400
Br2613     Br  0.26031282  0.42472060  0.59566227     0.01100
Br2614     Br  0.19255010  0.40679339  0.57785995    -0.02700
Br2615     Br  0.22051731  0.44457657  0.62479059    -0.03500
Br2616     Br  0.18010953  0.38112614  0.68291613     0.00400
C2617       C  0.13901781  0.42774722  0.72732729     0.01800
C2618       C  0.14654681  0.44257023  0.72299998     0.04700
C2619       C  0.13920333  0.44973560  0.71616891    -0.11400
C2620       C  0.12432150  0.44215692  0.71352577     0.24000
C2621       C  0.11675986  0.42741057  0.71812223    -0.12000
C2622       C  0.12406208  0.42022183  0.72506765     0.05400
C2623       C  0.11659858  0.44974312  0.70632688     0.27800
C2624       C  0.11200041  0.45538459  0.72723861    -0.12700
C2625       C  0.10481890  0.46271589  0.72051798     0.05900
C2626       C  0.10234192  0.46458355  0.69275880    -0.08600
C2627       C  0.10672834  0.45870024  0.67185558     0.06700
C2628       C  0.11378761  0.45124521  0.67864913    -0.13000
Br2629     Br  0.09633666  0.41714635  0.71502037    -0.05100
Br2630     Br  0.16699744  0.45304849  0.72498707     0.00600
Br2631     Br  0.09878917  0.47055836  0.74946939     0.01000
Br2632     Br  0.11940103  0.44281395  0.65016147    -0.03400
Br2633     Br  0.11338666  0.40017955  0.73282215     0.01100
Br2634     Br  0.14948608  0.46997522  0.71023146    -0.02700
Br2635     Br  0.11557645  0.45298827  0.76512943    -0.03500
Br2636     Br  0.10232475  0.46011135  0.63400169     0.00400
C2637       C  0.18941111  0.76445752  0.91727266     0.01800
C2638       C  0.19069200  0.77742077  0.90848314     0.04700
C2639       C  0.19981708  0.78501698  0.88667421    -0.11400
C2640       C  0.20746424  0.77958070  0.87306349     0.24000
C2641       C  0.20582810  0.76641835  0.88110872    -0.12000
C2642       C  0.19693235  0.75892411  0.90331831     0.05400
C2643       C  0.21688284  0.78762081  0.84978590     0.27800
C2644       C  0.21093123  0.78714784  0.82385902    -0.12700
C2645       C  0.21946924  0.79609334  0.80263356     0.05900
C2646       C  0.23419271  0.80513616  0.80686844    -0.08600
C2647       C  0.24027541  0.80502928  0.83240526     0.06700
C2648       C  0.23160335  0.79641262  0.85392382    -0.13000
Br2649     Br  0.21557715  0.75857737  0.86118027    -0.05100
Br2650     Br  0.18041895  0.78520271  0.92680590     0.00600
Br2651     Br  0.21057319  0.79679354  0.76873064     0.01000
Br2652     Br  0.23981096  0.79686290  0.88929234    -0.03400
Br2653     Br  0.19450810  0.74070107  0.91350704     0.01100
Br2654     Br  0.20197675  0.80301550  0.87544563    -0.02700
Br2655     Br  0.19093259  0.77440180  0.81774454    -0.03500
Br2656     Br  0.26052052  0.81640133  0.83776267     0.00400
C2657       C  0.23457892  0.80907937  0.66983033     0.01800
C2658       C  0.23995457  0.80194869  0.65411424     0.04700
C2659       C  0.23161896  0.79255425  0.63315354    -0.11400
C2660       C  0.21813516  0.79066123  0.62715602     0.24000
C2661       C  0.21280927  0.79786277  0.64260509    -0.12000
C2662       C  0.22088946  0.80686224  0.66418555     0.05400
C2663       C  0.20994161  0.78194247  0.60331382     0.27800
C2664       C  0.21179092  0.78845421  0.57753572    -0.12700
C2665       C  0.20334216  0.78063228  0.55514492     0.05900
C2666       C  0.19305221  0.76609331  0.55834754    -0.08600
C2667       C  0.19151353  0.75949227  0.58416052     0.06700
C2668       C  0.19994930  0.76743540  0.60656437    -0.13000
Br2669     Br  0.19446249  0.79550341  0.63382383    -0.05100
Br2670     Br  0.25908034  0.80575138  0.65983649     0.00600
Br2671     Br  0.20624212  0.79005799  0.52011484     0.01000
Br2672     Br  0.19765192  0.75861763  0.64201881    -0.03400
Br2673     Br  0.21277837  0.81554418  0.68674621     0.01100
Br2674     Br  0.23864361  0.78235512  0.61225735    -0.02700
Br2675     Br  0.22590702  0.80825974  0.57321555    -0.03500
Br2676     Br  0.17717108  0.73988570  0.58978980     0.00400
C2677       C  0.08868059  0.56089184  0.49918249     0.01800
C2678       C  0.10228211  0.56510376  0.50999426     0.04700
C2679       C  0.10368866  0.55812989  0.53314284    -0.11400
C2680       C  0.09155074  0.54691151  0.54545066     0.24000
C2681       C  0.07797183  0.54298766  0.53521757    -0.12000
C2682       C  0.07652055  0.54982951  0.51200009     0.05400
C2683       C  0.09290661  0.53829588  0.56758669     0.27800
C2684       C  0.09152881  0.52507713  0.56100757    -0.12700
C2685       C  0.09050333  0.51573011  0.58200551     0.05900
C2686       C  0.09129666  0.51977049  0.60976387    -0.08600
C2687       C  0.09360024  0.53341246  0.61623131     0.06700
C2688       C  0.09423347  0.54258757  0.59517843    -0.13000
Br2689     Br  0.06133843  0.52782654  0.55266774    -0.05100
Br2690     Br  0.11904311  0.58052606  0.49349482     0.00600
Br2691     Br  0.08654701  0.49690445  0.57243185     0.01000
Br2692     Br  0.09629661  0.56078231  0.60406890    -0.03400
Br2693     Br  0.05785112  0.54301885  0.99654129     0.01100
Br2694     Br  0.12221825  0.56373758  0.54787013    -0.02700
Br2695     Br  0.09029139  0.51955123  0.52299861    -0.03500
Br2696     Br  0.09599943  0.53963299  0.65394128     0.00400
C2697       C  0.08669494  0.51333208  0.74801188     0.01800
C2698       C  0.07494442  0.51298548  0.76118437     0.04700
C2699       C  0.07708375  0.52182959  0.78386229    -0.11400
C2700       C  0.09091024  0.53147432  0.79297076     0.24000
C2701       C  0.10262293  0.53175209  0.78031860    -0.12000
C2702       C  0.10054267  0.52252451  0.75830706     0.05400
C2703       C  0.09290985  0.54149064  0.81548782     0.27800
C2704       C  0.09242014  0.55390976  0.80962954    -0.12700
C2705       C  0.09185646  0.56221636  0.83113923     0.05900
C2706       C  0.09166821  0.55804362  0.85867630    -0.08600
C2707       C  0.09291294  0.54599336  0.86448148     0.06700
C2708       C  0.09372732  0.53786236  0.84290750    -0.13000
Br2709     Br  0.12152467  0.54491822  0.79317209    -0.05100
Br2710     Br  0.05583800  0.50119948  0.74762462     0.00600
Br2711     Br  0.09000609  0.57852350  0.82253277     0.01000
Br2712     Br  0.09559422  0.52150918  0.85076799    -0.03400
Br2713     Br  0.11677430  0.52211871  0.74357946     0.01100
Br2714     Br  0.06103947  0.52093340  0.80258434    -0.02700
Br2715     Br  0.09184013  0.55909840  0.77194596    -0.03500
Br2716     Br  0.09341765  0.54048350  0.90199265     0.00400
C2717       C  0.14400902  0.69855935  0.97176373     0.01800
C2718       C  0.15218695  0.69262929  0.96252319     0.04700
C2719       C  0.14549461  0.67820994  0.95504656    -0.11400
C2720       C  0.13065665  0.66965189  0.95700161     0.24000
C2721       C  0.12246697  0.67555486  0.96596668    -0.12000
C2722       C  0.12911347  0.68994461  0.97349560     0.05400
C2723       C  0.12361302  0.65429306  0.95059014     0.27800
C2724       C  0.11869726  0.64944122  0.92383711    -0.12700
C2725       C  0.11116500  0.63478528  0.91826016     0.05900
C2726       C  0.10847204  0.62491566  0.93954074    -0.08600
C2727       C  0.11371891  0.62985641  0.96623413     0.06700
C2728       C  0.12130305  0.64451316  0.97166963    -0.13000
Br2729     Br  0.10208200  0.66381436  0.96775719    -0.05100
Br2730     Br  0.17249345  0.70430410  0.95895371     0.00600
Br2731     Br  0.10378385  0.62834516  0.88180524     0.01000
Br2732     Br  0.12849293  0.65133557  0.50808703    -0.03400
Br2733     Br  0.11778732  0.69756776  0.98765321     0.01100
Br2734     Br  0.15652739  0.67011595  0.94162237    -0.02700
Br2735     Br  0.12202320  0.66297079  0.89509025    -0.03500
Br2736     Br  0.11098408  0.61666295  0.49535705     0.00400
C2737       C  0.96692640  0.42558450  0.59592296     0.01800
C2738       C  0.97608878  0.42278045  0.58017011     0.04700
C2739       C  0.99034168  0.42841152  0.58817138    -0.11400
C2740       C  0.99552461  0.43701770  0.61170620     0.24000
C2741       C  0.98630840  0.43955252  0.62781868    -0.12000
C2742       C  0.97202907  0.43381205  0.62004880     0.05400
C2743       C  0.01078037  0.44401532  0.61910883     0.27800
C2744       C  0.01530567  0.43854938  0.64060966    -0.12700
C2745       C  0.02927763  0.44642572  0.65064839     0.05900
C2746       C  0.03883010  0.45965771  0.63883305    -0.08600
C2747       C  0.03457079  0.46464308  0.61602330     0.06700
C2748       C  0.02053543  0.45686669  0.60629649    -0.13000
Br2749     Br  0.99345889  0.45137130  0.66009732    -0.05100
Br2750     Br  0.96905563  0.41096286  0.54794341     0.00600
Br2751     Br  0.03539488  0.43902438  0.68035592     0.01000
Br2752     Br  0.01444584  0.46409682  0.57616570    -0.03400
Br2753     Br  0.95983363  0.43817257  0.64157166     0.01100
Br2754     Br  0.00287051  0.42450962  0.56684794    -0.02700
Br2755     Br  0.00218480  0.42039939  0.65655717    -0.03500
Br2756     Br  0.04761149  0.48261965  0.59923429     0.00400
C2757       C  0.90217984  0.36884384  0.54929977     0.01800
C2758       C  0.89910767  0.36468819  0.52146653     0.04700
C2759       C  0.89210988  0.35019806  0.51433602    -0.11400
C2760       C  0.88781733  0.33975566  0.53493661     0.24000
C2761       C  0.89073235  0.34384809  0.56267318    -0.12000
C2762       C  0.89801596  0.35832356  0.56984548     0.05400
C2763       C  0.88027386  0.32442779  0.52762668     0.27800
C2764       C  0.86552433  0.31714183  0.52295176    -0.12700
C2765       C  0.85822833  0.30243822  0.51771560     0.05900
C2766       C  0.86563440  0.29486111  0.51759236    -0.08600
C2767       C  0.88046845  0.30225361  0.52196104     0.06700
C2768       C  0.88775322  0.31699937  0.52670246    -0.13000
Br2769     Br  0.88477891  0.32948358  0.59082744    -0.05100
Br2770     Br  0.90375462  0.37870426  0.99297383     0.00600
Br2771     Br  0.83791254  0.29265860  0.51253609     0.01000
Br2772     Br  0.90803463  0.32713450  0.53225062    -0.03400
Br2773     Br  0.90298468  0.36360146  0.60776134     0.01100
Br2774     Br  0.88845783  0.34456698  0.97629770    -0.02700
Br2775     Br  0.85526776  0.32730622  0.52473645    -0.03500
Br2776     Br  0.89102448  0.29237861  0.52072469     0.00400
C2777       C  0.92071735  0.48015219  0.74687445     0.01800
C2778       C  0.93252613  0.47922324  0.73775002     0.04700
C2779       C  0.93125423  0.47086592  0.71477504    -0.11400
C2780       C  0.91810866  0.46305099  0.70129218     0.24000
C2781       C  0.90630362  0.46389092  0.71033194    -0.12000
C2782       C  0.90759447  0.47247104  0.73297795     0.05400
C2783       C  0.91671766  0.45372646  0.67793362     0.27800
C2784       C  0.91902103  0.45903607  0.65095766    -0.12700
C2785       C  0.91879221  0.45055090  0.62902112     0.05900
C2786       C  0.91655786  0.43677392  0.63407186    -0.08600
C2787       C  0.91381165  0.43133284  0.66110725     0.06700
C2788       C  0.91377281  0.43976756  0.68290274    -0.13000
Br2789     Br  0.88838056  0.45320804  0.69152364    -0.05100
Br2790     Br  0.95020691  0.48840929  0.75785566     0.00600
Br2791     Br  0.92132735  0.45787772  0.59205900     0.01000
Br2792     Br  0.91023913  0.43246251  0.71990994    -0.03400
Br2793     Br  0.89141977  0.47395582  0.74421256     0.01100
Br2794     Br  0.94750145  0.46997826  0.70169944    -0.02700
Br2795     Br  0.92298176  0.47816667  0.64435223    -0.03500
Br2796     Br  0.91135317  0.41285248  0.66901858     0.00400
C2797       C  0.91713057  0.43397178  0.99832206     0.01800
C2798       C  0.90743770  0.43898483  0.00029552     0.04700
C2799       C  0.90615455  0.44678927  0.97856373    -0.11400
C2800       C  0.91430483  0.44939643  0.95466668     0.24000
C2801       C  0.92347901  0.44388306  0.95210807    -0.12000
C2802       C  0.92502593  0.43631836  0.97396364     0.05400
C2803       C  0.91405164  0.45884549  0.93307209     0.27800
C2804       C  0.90489259  0.45315701  0.91036088    -0.12700
C2805       C  0.90521429  0.46220360  0.88937622     0.05900
C2806       C  0.91488297  0.47691790  0.89084246    -0.08600
C2807       C  0.92364495  0.48265162  0.91417852     0.06700
C2808       C  0.92324364  0.47360292  0.93519945    -0.13000
Br2809     Br  0.93410579  0.44695620  0.91868727    -0.05100
Br2810     Br  0.89654760  0.43616582  0.53328724     0.00600
Br2811     Br  0.89210312  0.45451778  0.85902706     0.01000
Br2812     Br  0.93575500  0.48128838  0.96647665    -0.03400
Br2813     Br  0.93784325  0.42902486  0.97001767     0.01100
Br2814     Br  0.89365063  0.45446862  0.98174637    -0.02700
Br2815     Br  0.89231379  0.43293235  0.90766809    -0.03500
Br2816     Br  0.93692009  0.50276947  0.91676928     0.00400
C2817       C  0.96844681  0.53147543  0.85076917     0.01800
C2818       C  0.97493800  0.52433978  0.86283152     0.04700
C2819       C  0.98871512  0.53212785  0.87373559    -0.11400
C2820       C  0.99606506  0.54705829  0.87278131     0.24000
C2821       C  0.98946052  0.55422536  0.86164356    -0.12000
C2822       C  0.97569211  0.54646006  0.85051692     0.05400
C2823       C  0.01111538  0.55505333  0.88162930     0.27800
C2824       C  0.01463197  0.55871110  0.90938589    -0.12700
C2825       C  0.02880304  0.56460155  0.91818053     0.05900
C2826       C  0.03956574  0.56721515  0.89904302    -0.08600
C2827       C  0.03606945  0.56418538  0.87097829     0.06700
C2828       C  0.02185680  0.55797956  0.86239981    -0.13000
Br2829     Br  0.99946454  0.57468913  0.86135645    -0.05100
Br2830     Br  0.96486374  0.50387397  0.86545256     0.00600
Br2831     Br  0.03340370  0.56910339  0.95647481     0.01000
Br2832     Br  0.01687503  0.55271742  0.82444342    -0.03400
Br2833     Br  0.96721085  0.55640839  0.83339152     0.01100
Br2834     Br  0.99769764  0.52238466  0.88978663    -0.02700
Br2835     Br  0.99990824  0.55529911  0.93531057    -0.03500
Br2836     Br  0.05045404  0.56734118  0.84435841     0.00400
C2837       C  0.86163128  0.55992518  0.76895195     0.01800
C2838       C  0.85444961  0.54504488  0.77270187     0.04700
C2839       C  0.86219654  0.53810581  0.77786732    -0.11400
C2840       C  0.87711926  0.54593244  0.77888575     0.24000
C2841       C  0.88432379  0.56065038  0.77397641    -0.12000
C2842       C  0.87662568  0.56764562  0.76906177     0.05400
C2843       C  0.88525691  0.53877952  0.78600455     0.27800
C2844       C  0.88803922  0.53736417  0.81373056    -0.12700
C2845       C  0.89587461  0.53073368  0.82064595     0.05900
C2846       C  0.90100549  0.52552353  0.79980465    -0.08600
C2847       C  0.89827724  0.52702579  0.77201728     0.06700
C2848       C  0.89039582  0.53362271  0.76516162    -0.13000
Br2849     Br  0.90479982  0.57117756  0.77426843    -0.05100
Br2850     Br  0.83399582  0.53412708  0.77215111     0.00600
Br2851     Br  0.90021340  0.52951755  0.85864157     0.01000
Br2852     Br  0.88660348  0.53566234  0.72723585    -0.03400
Br2853     Br  0.88674226  0.58773527  0.76125204     0.01100
Br2854     Br  0.85244649  0.51788909  0.78427222    -0.02700
Br2855     Br  0.88125955  0.54476861  0.84215209    -0.03500
Br2856     Br  0.90483686  0.51956071  0.74329040     0.00400
C2857       C  0.80858331  0.57610687  0.69418102     0.01800
C2858       C  0.81248806  0.57531179  0.66688713     0.04700
C2859       C  0.80407284  0.57525959  0.64483416    -0.11400
C2860       C  0.79195795  0.57641643  0.64981893     0.24000
C2861       C  0.78797943  0.57709388  0.67699004    -0.12000
C2862       C  0.79613471  0.57673527  0.69909600     0.05400
C2863       C  0.78380692  0.57756582  0.62640514     0.27800
C2864       C  0.78917969  0.59050691  0.61210834    -0.12700
C2865       C  0.78202624  0.59145847  0.58885283     0.05900
C2866       C  0.76893056  0.57969627  0.58072687    -0.08600
C2867       C  0.76332189  0.56685073  0.59564860     0.06700
C2868       C  0.77087930  0.56573621  0.61811190    -0.13000
Br2869     Br  0.77160201  0.57903828  0.68385494    -0.05100
Br2870     Br  0.83000856  0.57559897  0.65924770     0.00600
Br2871     Br  0.79089214  0.60861751  0.56707392     0.01000
Br2872     Br  0.76353191  0.54800716  0.63769132    -0.03400
Br2873     Br  0.78997601  0.57684155  0.73612957     0.01100
Br2874     Br  0.80934878  0.57406468  0.60755757    -0.02700
Br2875     Br  0.80632402  0.60702542  0.62469426    -0.03500
Br2876     Br  0.74499055  0.55090325  0.58636569     0.00400
C2877       C  0.76637264  0.57518033  0.93893293     0.01800
C2878       C  0.77078718  0.56503393  0.94037384     0.04700
C2879       C  0.77862674  0.56380423  0.91873657    -0.11400
C2880       C  0.78249107  0.57302229  0.89604225     0.24000
C2881       C  0.77777147  0.58290191  0.89421284    -0.12000
C2882       C  0.76963446  0.58392007  0.91551170     0.05400
C2883       C  0.79220044  0.57295511  0.87481553     0.27800
C2884       C  0.80696909  0.58139747  0.87840398    -0.12700
C2885       C  0.81625144  0.58240408  0.85734393     0.05900
C2886       C  0.81079040  0.57496761  0.83240711    -0.08600
C2887       C  0.79593812  0.56586200  0.82958805     0.06700
C2888       C  0.78671390  0.56492266  0.85073647    -0.13000
Br2889     Br  0.78293963  0.59537870  0.86285289    -0.05100
Br2890     Br  0.76611143  0.55280290  0.97200184     0.00600
Br2891     Br  0.83645778  0.59357735  0.86345693     0.01000
Br2892     Br  0.76644836  0.55288664  0.84672408    -0.03400
Br2893     Br  0.76398416  0.59810554  0.91346117     0.01100
Br2894     Br  0.78425317  0.54962129  0.92012478    -0.02700
Br2895     Br  0.81438912  0.59172400  0.91227389    -0.03500
Br2896     Br  0.78786139  0.55515858  0.79638759     0.00400
C2897       C  0.70268931  0.55968358  0.53133687     0.01800
C2898       C  0.69671221  0.54543067  0.54000711     0.04700
C2899       C  0.68227596  0.53757376  0.54723042    -0.11400
C2900       C  0.67375093  0.54388580  0.54570154     0.24000
C2901       C  0.67972098  0.55814284  0.53745726    -0.12000
C2902       C  0.69415937  0.56606324  0.53042322     0.05400
C2903       C  0.65836756  0.53548205  0.55183766     0.27800
C2904       C  0.64873325  0.52766055  0.53079618    -0.12700
C2905       C  0.63405136  0.52052949  0.53584852     0.05900
C2906       C  0.62890894  0.52123609  0.56205633    -0.08600
C2907       C  0.63863659  0.52893580  0.58325713     0.06700
C2908       C  0.65332996  0.53597127  0.57814377    -0.13000
Br2909     Br  0.66792795  0.56668989  0.53537492    -0.05100
Br2910     Br  0.70836640  0.53678122  0.04337501     0.00600
Br2911     Br  0.62112740  0.50939582  0.50689408     0.01000
Br2912     Br  0.66667072  0.54654904  0.60694064    -0.03400
Br2913     Br  0.70193644  0.58545713  0.51833128     0.01100
Br2914     Br  0.67410016  0.51815635  0.55932893    -0.02700
Br2915     Br  0.65575324  0.52688546  0.99486868    -0.03500
Br2916     Br  0.63196862  0.53073860  0.61885209     0.00400
C2917       C  0.57124192  0.53049315  0.60026471     0.01800
C2918       C  0.57927601  0.54130951  0.61954200     0.04700
C2919       C  0.57407913  0.54991573  0.62976917    -0.11400
C2920       C  0.56098627  0.54797299  0.62047914     0.24000
C2921       C  0.55325562  0.53766594  0.60036208    -0.12000
C2922       C  0.55820950  0.52878157  0.59059219     0.05400
C2923       C  0.55449913  0.55557608  0.63391017     0.27800
C2924       C  0.54556011  0.54931908  0.65666508    -0.12700
C2925       C  0.53802089  0.55547979  0.66781686     0.05900
C2926       C  0.53932443  0.56798938  0.65604318    -0.08600
C2927       C  0.54906229  0.57474851  0.63436246     0.06700
C2928       C  0.55657289  0.56850545  0.62328116    -0.13000
Br2929     Br  0.53548331  0.53536758  0.58718680    -0.05100
Br2930     Br  0.59750642  0.54455292  0.63194439     0.00600
Br2931     Br  0.52525390  0.54595794  0.69803960     0.01000
Br2932     Br  0.56948532  0.57742350  0.59311816    -0.03400
Br2933     Br  0.54623933  0.51337234  0.56620484     0.01100
Br2934     Br  0.58457959  0.56407611  0.65731915    -0.02700
Br2935     Br  0.54322537  0.53184962  0.67174979    -0.03500
Br2936     Br  0.55255529  0.59281172  0.62028531     0.00400
C2937       C  0.52118275  0.43070786  0.75787174     0.01800
C2938       C  0.52835048  0.42494105  0.74346938     0.04700
C2939       C  0.53712061  0.43236262  0.72112734    -0.11400
C2940       C  0.53883616  0.44557258  0.71328452     0.24000
C2941       C  0.53200253  0.45151481  0.72803227    -0.12000
C2942       C  0.52327736  0.44416111  0.75040817     0.05400
C2943       C  0.54747169  0.45310587  0.68898876     0.27800
C2944       C  0.56178363  0.46368836  0.69216623    -0.12700
C2945       C  0.56955898  0.47183594  0.66941267     0.05900
C2946       C  0.56296156  0.46935510  0.64337950    -0.08600
C2947       C  0.54887816  0.45809341  0.64003543     0.06700
C2948       C  0.54110050  0.45014701  0.66287581    -0.13000
Br2949     Br  0.53448076  0.46968611  0.71716357    -0.05100
Br2950     Br  0.52573795  0.40661026  0.75332836     0.00600
Br2951     Br  0.58886673  0.48695493  0.67471952     0.01000
Br2952     Br  0.52146380  0.43559405  0.65875525    -0.03400
Br2953     Br  0.51487944  0.45298559  0.77163256     0.01100
Br2954     Br  0.54654322  0.42435173  0.70065433    -0.02700
Br2955     Br  0.57041439  0.46741878  0.72810645    -0.03500
Br2956     Br  0.54025257  0.45318198  0.60405123     0.00400
C2957       C  0.56087496  0.47027787  0.00816046     0.01800
C2958       C  0.54634402  0.46572279  0.00448510     0.04700
C2959       C  0.53884694  0.45699369  0.98216121    -0.11400
C2960       C  0.54568479  0.45241836  0.96381119     0.24000
C2961       C  0.56003690  0.45651904  0.96791782    -0.12000
C2962       C  0.56764743  0.46545542  0.99001466     0.05400
C2963       C  0.53785785  0.44384268  0.93952718     0.27800
C2964       C  0.52812648  0.42922066  0.94228706    -0.12700
C2965       C  0.51936493  0.42150974  0.92004819     0.05900
C2966       C  0.52078544  0.42831350  0.89453266    -0.08600
C2967       C  0.53130817  0.44276276  0.89139156     0.06700
C2968       C  0.53952877  0.45055925  0.91400228    -0.13000
Br2969     Br  0.56930890  0.45018951  0.94262980    -0.05100
Br2970     Br  0.53637821  0.47078550  0.03073497     0.00600
Br2971     Br  0.50473113  0.40201665  0.92563327     0.01000
Br2972     Br  0.55276922  0.47064233  0.91033194    -0.03400
Br2973     Br  0.58751631  0.47162209  0.49427071     0.01100
Br2974     Br  0.51924691  0.45160062  0.97614400    -0.02700
Br2975     Br  0.52660511  0.41992845  0.97692133    -0.03500
Br2976     Br  0.53496642  0.45198038  0.85595374     0.00400
C2977       C  0.46380129  0.42311324  0.84845306     0.01800
C2978       C  0.45254769  0.41621263  0.86742281     0.04700
C2979       C  0.44570597  0.42327764  0.87781918    -0.11400
C2980       C  0.45007096  0.43724871  0.86946774     0.24000
C2981       C  0.46092275  0.44400385  0.84994153    -0.12000
C2982       C  0.46772295  0.43697523  0.83929229     0.05400
C2983       C  0.44349533  0.44503260  0.88166336     0.27800
C2984       C  0.43115363  0.44386771  0.86998230    -0.12700
C2985       C  0.42509424  0.45151515  0.88110926     0.05900
C2986       C  0.43165060  0.46079787  0.90365117    -0.08600
C2987       C  0.44409315  0.46186943  0.91534660     0.06700
C2988       C  0.44988738  0.45392647  0.90443226    -0.13000
Br2989     Br  0.46675787  0.46318043  0.83859563    -0.05100
Br2990     Br  0.44606808  0.39691809  0.87868289     0.00600
Br2991     Br  0.40751559  0.44866527  0.86553354     0.01000
Br2992     Br  0.46700259  0.45557586  0.91988935    -0.03400
Br2993     Br  0.48301075  0.44702096  0.81348702     0.01100
Br2994     Br  0.43044894  0.41399669  0.90391785    -0.02700
Br2995     Br  0.42285558  0.43204261  0.83805612    -0.03500
Br2996     Br  0.45406838  0.47485483  0.94506242     0.00400
C2997       C  0.43687962  0.29059648  0.76064265     0.01800
C2998       C  0.43755873  0.30101862  0.74246853     0.04700
C2999       C  0.44429745  0.31534098  0.75072149    -0.11400
C3000       C  0.45029521  0.31924412  0.77717665     0.24000
C3001       C  0.44951804  0.30882233  0.79536300    -0.12000
C3002       C  0.44293338  0.29455882  0.78707647     0.05400
C3003       C  0.45741873  0.33428792  0.78612671     0.27800
C3004       C  0.47225183  0.34286148  0.78392331    -0.12700
C3005       C  0.47909897  0.35699950  0.79326208     0.05900
C3006       C  0.47109614  0.36262304  0.80493971    -0.08600
C3007       C  0.45625154  0.35388213  0.80759318     0.06700
C3008       C  0.44944666  0.33977874  0.79812468    -0.13000
Br3009     Br  0.45735678  0.31416424  0.83184420    -0.05100
Br3010     Br  0.42856750  0.29558785  0.70692055     0.00600
Br3011     Br  0.49936463  0.36870215  0.78877477     0.01000
Br3012     Br  0.42918637  0.32779660  0.80194085    -0.03400
Br3013     Br  0.44273541  0.28054497  0.81171643     0.01100
Br3014     Br  0.44510180  0.32962230  0.72611127    -0.02700
Br3015     Br  0.48312078  0.33509763  0.76807144    -0.03500
Br3016     Br  0.44525219  0.36089911  0.82565525     0.00400
C3017       C  0.42260573  0.22275417  0.67491132     0.01800
C3018       C  0.41822615  0.20821835  0.67867144     0.04700
C3019       C  0.41786288  0.19991758  0.65629419    -0.11400
C3020       C  0.42197497  0.20603587  0.63009267     0.24000
C3021       C  0.42704116  0.22062303  0.62643211    -0.12000
C3022       C  0.42737434  0.22900015  0.64873106     0.05400
C3023       C  0.42020917  0.19689902  0.60616705     0.27800
C3024       C  0.43084397  0.19368285  0.59952694    -0.12700
C3025       C  0.42889187  0.18461365  0.57736788     0.05900
C3026       C  0.41628044  0.17875082  0.56171532    -0.08600
C3027       C  0.40561027  0.18196743  0.56847862     0.06700
C3028       C  0.40759682  0.19103270  0.59064999    -0.13000
Br3029     Br  0.43296162  0.22890071  0.59040650    -0.05100
Br3030     Br  0.41288625  0.19945757  0.71446473     0.00600
Br3031     Br  0.44320890  0.17964706  0.56949276     0.01000
Br3032     Br  0.39306069  0.19550404  0.59991038    -0.03400
Br3033     Br  0.43337760  0.24872227  0.64239146     0.01100
Br3034     Br  0.41128988  0.17995287  0.66114938    -0.02700
Br3035     Br  0.44800154  0.20162786  0.62111149    -0.03500
Br3036     Br  0.38849129  0.17452702  0.54676032     0.00400
C3037       C  0.42335236  0.22659041  0.81230046     0.01800
C3038       C  0.43038836  0.21876515  0.80910744     0.04700
C3039       C  0.43110590  0.21080639  0.83121235    -0.11400
C3040       C  0.42475087  0.21057066  0.85646132     0.24000
C3041       C  0.41832638  0.21889837  0.86007162    -0.12000
C3042       C  0.41769582  0.22696113  0.83810414     0.05400
C3043       C  0.42352617  0.20050370  0.87828355     0.27800
C3044       C  0.41187394  0.18655753  0.87800169    -0.12700
C3045       C  0.41003451  0.17712926  0.89944627     0.05900
C3046       C  0.41998284  0.18154122  0.92105158    -0.08600
C3047       C  0.43178764  0.19542711  0.92108175     0.06700
C3048       C  0.43356910  0.20489790  0.89968004    -0.13000
Br3049     Br  0.40980570  0.21869626  0.89484696    -0.05100
Br3050     Br  0.43798168  0.21784100  0.77393563     0.00600
Br3051     Br  0.39328964  0.15853522  0.90023631     0.01000
Br3052     Br  0.44964560  0.22391677  0.89963342    -0.03400
Br3053     Br  0.40919845  0.23863569  0.84357781     0.01100
Br3054     Br  0.44010139  0.19955458  0.82664556    -0.02700
Br3055     Br  0.39827667  0.18052876  0.84835443    -0.03500
Br3056     Br  0.44559133  0.20139303  0.95028184     0.00400
C3057       C  0.43495455  0.13195540  0.51179091     0.01800
C3058       C  0.43642412  0.12936896  0.53974231     0.04700
C3059       C  0.44410110  0.12262405  0.54715309    -0.11400
C3060       C  0.44997520  0.11800698  0.52673837     0.24000
C3061       C  0.44836285  0.12036733  0.49886118    -0.12000
C3062       C  0.44116641  0.12760470  0.49140150     0.05400
C3063       C  0.45799624  0.11080973  0.53464548     0.27800
C3064       C  0.47293774  0.11849624  0.53514023    -0.12700
C3065       C  0.48057293  0.11167327  0.54226367     0.05900
C3066       C  0.47328200  0.09722886  0.55008336    -0.08600
C3067       C  0.45828945  0.08963319  0.55013714     0.06700
C3068       C  0.45069305  0.09634149  0.54195059    -0.13000
Br3069     Br  0.45573683  0.11328847  0.47093212    -0.05100
Br3070     Br  0.42851767  0.13559040  0.56823330     0.00600
Br3071     Br  0.50100416  0.12199965  0.53960762     0.01000
Br3072     Br  0.43022679  0.08574851  0.54078282    -0.03400
Br3073     Br  0.43944314  0.13101677  0.95309937     0.01100
Br3074     Br  0.44676944  0.11978554  0.58536109    -0.02700
Br3075     Br  0.48290168  0.13846253  0.02626131    -0.03500
Br3076     Br  0.44802026  0.07026824  0.56299518     0.00400
C3077       C  0.46921996  0.03200352  0.59810227     0.01800
C3078       C  0.45427795  0.02533152  0.59727443     0.04700
C3079       C  0.44589894  0.01142653  0.60744093    -0.11400
C3080       C  0.45241317  0.00430766  0.61920187     0.24000
C3081       C  0.46731918  0.01102149  0.62039250    -0.12000
C3082       C  0.47571370  0.02473897  0.60950860     0.05400
C3083       C  0.44375251  0.98954326  0.62947967     0.27800
C3084       C  0.43910239  0.98696610  0.65691875    -0.12700
C3085       C  0.43282270  0.97311173  0.66773799     0.05900
C3086       C  0.43107830  0.96175864  0.65103620    -0.08600
C3087       C  0.43480452  0.96425720  0.62293186     0.06700
C3088       C  0.44121174  0.97813456  0.61231932    -0.13000
Br3089     Br  0.47618836  0.00136421  0.63727582    -0.05100
Br3090     Br  0.44523684  0.03496866  0.58119668     0.00600
Br3091     Br  0.42637391  0.96970483  0.70529163     0.01000
Br3092     Br  0.44726311  0.98175634  0.57450003    -0.03400
Br3093     Br  0.49612879  0.03370629  0.61133044     0.01100
Br3094     Br  0.42550244  0.00196759  0.60492878    -0.02700
Br3095     Br  0.44178743  0.00256432  0.67977050    -0.03500
Br3096     Br  0.43226808  0.94901411  0.59903805     0.00400
C3097       C  0.57803955  0.03563838  0.85212284     0.01800
C3098       C  0.58416659  0.03398933  0.87656293     0.04700
C3099       C  0.57883652  0.02045572  0.88848104    -0.11400
C3100       C  0.56774741  0.00844177  0.87561788     0.24000
C3101       C  0.56230856  0.00988595  0.85035261    -0.12000
C3102       C  0.56723343  0.02341631  0.83880430     0.05400
C3103       C  0.56064558  0.99447907  0.88978316     0.27800
C3104       C  0.56494491  0.98445016  0.88504572    -0.12700
C3105       C  0.55697247  0.97061989  0.89582734     0.05900
C3106       C  0.54451238  0.96669943  0.91101734    -0.08600
C3107       C  0.54056242  0.97698656  0.91662303     0.06700
C3108       C  0.54869209  0.99084411  0.90620443    -0.13000
Br3109     Br  0.54744825  0.99321207  0.83241110    -0.05100
Br3110     Br  0.60006050  0.05011876  0.89377623     0.00600
Br3111     Br  0.56335553  0.95718541  0.89023200     0.01000
Br3112     Br  0.54311381  0.00481280  0.91321744    -0.03400
Br3113     Br  0.55797675  0.02496045  0.80618181     0.01100
Br3114     Br  0.58621242  0.01834441  0.92312818    -0.02700
Br3115     Br  0.58148180  0.98958715  0.86296578    -0.03500
Br3116     Br  0.52334707  0.97200765  0.93643717     0.00400
C3117       C  0.56724521  0.08575934  0.89249819     0.01800
C3118       C  0.55992832  0.07425493  0.91072381     0.04700
C3119       C  0.55226814  0.07535535  0.93272487    -0.11400
C3120       C  0.55200602  0.08800039  0.93685698     0.24000
C3121       C  0.55980260  0.09973662  0.91944688    -0.12000
C3122       C  0.56737069  0.09860060  0.89713199     0.05400
C3123       C  0.54309764  0.08856357  0.95914491     0.27800
C3124       C  0.52871187  0.08399924  0.95401893    -0.12700
C3125       C  0.51964377  0.08245699  0.97586511     0.05900
C3126       C  0.52488729  0.08522658  0.00298173    -0.08600
C3127       C  0.53941006  0.09022487  0.50796827     0.06700
C3128       C  0.54852522  0.09202760  0.98601010    -0.13000
Br3129     Br  0.55993156  0.11723312  0.92617822    -0.05100
Br3130     Br  0.56075464  0.05706550  0.90626299     0.00600
Br3131     Br  0.50008376  0.07673929  0.96855087     0.01000
Br3132     Br  0.56832221  0.09853291  0.99268257    -0.03400
Br3133     Br  0.57719505  0.11431691  0.87213646     0.01100
Br3134     Br  0.54195968  0.05946147  0.95722920    -0.02700
Br3135     Br  0.52135101  0.07923889  0.91712230    -0.03500
Br3136     Br  0.54667107  0.09338926  0.54500210     0.00400
C3137       C  0.56713957  0.08463150  0.75275762     0.01800
C3138       C  0.56216022  0.09434965  0.75479694     0.04700
C3139       C  0.55460395  0.09591744  0.73287271    -0.11400
C3140       C  0.55197986  0.08782350  0.70886454     0.24000
C3141       C  0.55737243  0.07852775  0.70633766    -0.12000
C3142       C  0.56489879  0.07689343  0.72821952     0.05400
C3143       C  0.54234705  0.08793296  0.68740311     0.27800
C3144       C  0.52780499  0.07769557  0.68842004    -0.12700
C3145       C  0.51873657  0.07669812  0.66689335     0.05900
C3146       C  0.52418729  0.08602613  0.64431582    -0.08600
C3147       C  0.53860159  0.09672068  0.64393908     0.06700
C3148       C  0.54766494  0.09772492  0.66555262    -0.13000
Br3149     Br  0.55406835  0.06776426  0.67297803    -0.05100
Br3150     Br  0.56460497  0.10475732  0.78831037     0.00600
Br3151     Br  0.49910742  0.06178629  0.66743433     0.01000
Br3152     Br  0.56735333  0.11238274  0.66519015    -0.03400
Br3153     Br  0.57235093  0.06423240  0.72413218     0.01100
Br3154     Br  0.54725751  0.10870267  0.73594136    -0.02700
Br3155     Br  0.52044732  0.06478578  0.71913753    -0.03500
Br3156     Br  0.54585934  0.11006809  0.61390835     0.00400
C3157       C  0.81284749  0.22984079  0.57514368     0.01800
C3158       C  0.81794353  0.23160486  0.60233830     0.04700
C3159       C  0.80879762  0.22344372  0.62365468    -0.11400
C3160       C  0.79444139  0.21369719  0.61806561     0.24000
C3161       C  0.78906826  0.21263203  0.59130476    -0.12000
C3162       C  0.79827326  0.22056935  0.56976314     0.05400
C3163       C  0.78546364  0.20374949  0.63993615     0.27800
C3164       C  0.78554802  0.19097586  0.64383415    -0.12700
C3165       C  0.77833575  0.18212015  0.66619847     0.05900
C3166       C  0.77082244  0.18589617  0.68464078    -0.08600
C3167       C  0.77040780  0.19849896  0.68031556     0.06700
C3168       C  0.77784670  0.20748404  0.65811752    -0.13000
Br3169     Br  0.76917994  0.19993156  0.58416555    -0.05100
Br3170     Br  0.83740591  0.24544631  0.61064435     0.00600
Br3171     Br  0.77872142  0.16472171  0.67140697     0.01000
Br3172     Br  0.77831697  0.22529028  0.65329141    -0.03400
Br3173     Br  0.79103121  0.21775489  0.53267837     0.01100
Br3174     Br  0.81598812  0.22518991  0.66054096    -0.02700
Br3175     Br  0.79607172  0.18592288  0.61899872    -0.03500
Br3176     Br  0.76054465  0.20398729  0.70584352     0.00400
C3177       C  0.77304060  0.18641875  0.82376106     0.01800
C3178       C  0.76899142  0.18153810  0.85087404     0.04700
C3179       C  0.77705011  0.18996850  0.87307098    -0.11400
C3180       C  0.78912068  0.20331801  0.86820440     0.24000
C3181       C  0.79291609  0.20841236  0.84117518    -0.12000
C3182       C  0.78482146  0.20001552  0.81894071     0.05400
C3183       C  0.79811151  0.21176077  0.89150705     0.27800
C3184       C  0.79511609  0.22125103  0.90547343    -0.12700
C3185       C  0.80345814  0.22895775  0.92812513     0.05900
C3186       C  0.81486340  0.22719950  0.93670556    -0.08600
C3187       C  0.81808118  0.21798664  0.92209603     0.06700
C3188       C  0.80962160  0.21017626  0.89975394    -0.13000
Br3189     Br  0.80955076  0.22667250  0.83475165    -0.05100
Br3190     Br  0.75212791  0.16348743  0.85763301     0.00600
Br3191     Br  0.79883284  0.24141364  0.94790486     0.01000
Br3192     Br  0.81374143  0.19722806  0.88037148    -0.03400
Br3193     Br  0.79036173  0.20685692  0.78189951     0.01100
Br3194     Br  0.77183327  0.18313631  0.91019225    -0.02700
Br3195     Br  0.77945045  0.22348098  0.89355137    -0.03500
Br3196     Br  0.83461479  0.21664494  0.93147007     0.00400
C3197       C  0.70698017  0.13634604  0.77840361     0.01800
C3198       C  0.69978015  0.12178651  0.78540568     0.04700
C3199       C  0.68534381  0.11489965  0.79272975    -0.11400
C3200       C  0.67815675  0.12260973  0.79407097     0.24000
C3201       C  0.68547269  0.13725803  0.78829125    -0.12000
C3202       C  0.69976362  0.14406862  0.77998358     0.05400
C3203       C  0.66269396  0.11515931  0.79987606     0.27800
C3204       C  0.65300685  0.11136190  0.77795111    -0.12700
C3205       C  0.63834209  0.10431739  0.78310101     0.05900
C3206       C  0.63324352  0.10073200  0.81023856    -0.08600
C3207       C  0.64295734  0.10446378  0.83220612     0.06700
C3208       C  0.65765846  0.11181847  0.82703401    -0.13000
Br3209     Br  0.67580281  0.14793480  0.79192422    -0.05100
Br3210     Br  0.70941359  0.11100032  0.78376908     0.00600
Br3211     Br  0.62533743  0.10024641  0.75289114     0.01000
Br3212     Br  0.67095850  0.11734802  0.85707353    -0.03400
Br3213     Br  0.70949396  0.16410794  0.77175101     0.01100
Br3214     Br  0.67521947  0.09477339  0.80016684    -0.02700
Br3215     Br  0.65991687  0.11582222  0.74073837    -0.03500
Br3216     Br  0.63619088  0.09877986  0.86923996     0.00400
C3217       C  0.69980666  0.78765952  0.82149333     0.01800
C3218       C  0.68899015  0.78152180  0.84145617     0.04700
C3219       C  0.67469033  0.77369752  0.83332912    -0.11400
C3220       C  0.67116266  0.77175471  0.80526563     0.24000
C3221       C  0.68194470  0.77679441  0.78536054    -0.12000
C3222       C  0.69626137  0.78481730  0.79337116     0.05400
C3223       C  0.65623057  0.76595143  0.79654936     0.27800
C3224       C  0.64693176  0.75120448  0.79471093    -0.12700
C3225       C  0.63276926  0.74591429  0.78638433     0.05900
C3226       C  0.62798865  0.75540462  0.77943305    -0.08600
C3227       C  0.63740769  0.77018229  0.78096426     0.06700
C3228       C  0.65143174  0.77541806  0.78982310    -0.13000
Br3229     Br  0.67688881  0.77335261  0.74698479    -0.05100
Br3230     Br  0.69370077  0.78369293  0.88003377     0.00600
Br3231     Br  0.62013127  0.72570457  0.78344735     0.01000
Br3232     Br  0.66408969  0.79563474  0.79335107    -0.03400
Br3233     Br  0.71070181  0.79290909  0.76539018     0.01100
Br3234     Br  0.65983906  0.76623394  0.86052250    -0.02700
Br3235     Br  0.65370537  0.73836348  0.80354726    -0.03500
Br3236     Br  0.63103160  0.78339386  0.77220228     0.00400
C3237       C  0.80495091  0.76342789  0.89058169     0.01800
C3238       C  0.80738464  0.77126293  0.86611150     0.04700
C3239       C  0.79972956  0.77823291  0.86069193    -0.11400
C3240       C  0.78935981  0.77708387  0.87933161     0.24000
C3241       C  0.78674309  0.76908020  0.90356328    -0.12000
C3242       C  0.79467908  0.76243565  0.90941695     0.05400
C3243       C  0.78135537  0.78448589  0.87360654     0.27800
C3244       C  0.78575588  0.79783415  0.88552349    -0.12700
C3245       C  0.77818029  0.80488769  0.88013426     0.05900
C3246       C  0.76647663  0.79880797  0.86210924    -0.08600
C3247       C  0.76208821  0.78547465  0.85015498     0.06700
C3248       C  0.76942663  0.77824156  0.85614577    -0.13000
Br3249     Br  0.77203085  0.76701073  0.92832516    -0.05100
Br3250     Br  0.82156309  0.77289437  0.84038085     0.00600
Br3251     Br  0.78405362  0.82302361  0.89692894     0.01000
Br3252     Br  0.76307031  0.75970406  0.84078163    -0.03400
Br3253     Br  0.79097943  0.75146532  0.94266137     0.01100
Br3254     Br  0.80348707  0.78949766  0.82785126    -0.02700
Br3255     Br  0.80231283  0.80650041  0.90887294    -0.03500
Br3256     Br  0.74562839  0.77686697  0.82653022     0.00400
C3257       C  0.79514906  0.69791910  0.93140014     0.01800
C3258       C  0.79198350  0.69549662  0.95971929     0.04700
C3259       C  0.78394377  0.68153555  0.96971263    -0.11400
C3260       C  0.77897191  0.66997264  0.95157285     0.24000
C3261       C  0.78119342  0.67238493  0.92314684    -0.12000
C3262       C  0.78925896  0.68632683  0.91304487     0.05400
C3263       C  0.77294259  0.65538780  0.96269098     0.27800
C3264       C  0.78215687  0.65025471  0.96921157    -0.12700
C3265       C  0.77670901  0.63644033  0.97955870     0.05900
C3266       C  0.76197495  0.62770780  0.98378914    -0.08600
C3267       C  0.75276399  0.63295647  0.97773686     0.06700
C3268       C  0.75825560  0.64677925  0.96713347    -0.13000
Br3269     Br  0.77361725  0.65649335  0.89824112    -0.05100
Br3270     Br  0.79951533  0.71105290  0.98550101     0.00600
Br3271     Br  0.78949568  0.62930922  0.98631775     0.01000
Br3272     Br  0.74576554  0.65404404  0.95888346    -0.03400
Br3273     Br  0.79202099  0.68948897  0.87397315     0.01100
Br3274     Br  0.78035328  0.67808266  0.50848690    -0.02700
Br3275     Br  0.80233805  0.66225097  0.96385715    -0.03500
Br3276     Br  0.73272725  0.62151527  0.98513816     0.00400
C3277       C  0.85628925  0.74830383  0.97385039     0.01800
C3278       C  0.86789115  0.76185856  0.97998034     0.04700
C3279       C  0.87686801  0.76359128  0.50233088    -0.11400
C3280       C  0.87443282  0.75176973  0.51824027     0.24000
C3281       C  0.86289662  0.73824377  0.51208811    -0.12000
C3282       C  0.85379995  0.73651145  0.99009188     0.05400
C3283       C  0.88415308  0.75325803  0.54099924     0.27800
C3284       C  0.89571671  0.75122169  0.53586219    -0.12700
C3285       C  0.90355206  0.75023153  0.55787626     0.05900
C3286       C  0.89981554  0.75124041  0.58510780    -0.08600
C3287       C  0.88882830  0.75422575  0.59015451     0.06700
C3288       C  0.88099132  0.75519619  0.56809542    -0.13000
Br3289     Br  0.85969146  0.72202806  0.53377028    -0.05100
Br3290     Br  0.87212666  0.77786240  0.95671933     0.00600
Br3291     Br  0.91946258  0.74759565  0.55067019     0.01000
Br3292     Br  0.86536772  0.75834493  0.57496165    -0.03400
Br3293     Br  0.83762940  0.71794666  0.98306060     0.01100
Br3294     Br  0.89264956  0.78207756  0.51102367    -0.02700
Br3295     Br  0.90033256  0.74911713  0.99859477    -0.03500
Br3296     Br  0.88364027  0.75576706  0.62733487     0.00400
C3297       C  0.89293569  0.74605107  0.72021287     0.01800
C3298       C  0.88377814  0.73421503  0.73643784     0.04700
C3299       C  0.87587897  0.73569290  0.75756245    -0.11400
C3300       C  0.87723510  0.74902041  0.76286514     0.24000
C3301       C  0.88619234  0.76081082  0.74646153    -0.12000
C3302       C  0.89400082  0.75932033  0.72504884     0.05400
C3303       C  0.86950116  0.75049350  0.78640872     0.27800
C3304       C  0.85557293  0.74789404  0.78291720    -0.12700
C3305       C  0.84739397  0.74694549  0.80597161     0.05900
C3306       C  0.85313220  0.74853712  0.83261765    -0.08600
C3307       C  0.86730833  0.75171230  0.83595831     0.06700
C3308       C  0.87550392  0.75283745  0.81284365    -0.13000
Br3309     Br  0.88763290  0.77890959  0.75335814    -0.05100
Br3310     Br  0.88253935  0.71607139  0.73081245     0.00600
Br3311     Br  0.82836329  0.74352901  0.80090185     0.01000
Br3312     Br  0.89480991  0.75694378  0.81726690    -0.03400
Br3313     Br  0.90559121  0.77526560  0.70154416     0.01100
Br3314     Br  0.86317577  0.71945668  0.77951876    -0.02700
Br3315     Br  0.84762619  0.74515322  0.74650246    -0.03500
Br3316     Br  0.87515907  0.75311023  0.87218083     0.00400
C3317       C  0.86897328  0.62582261  0.73389474     0.01800
C3318       C  0.87691067  0.62820100  0.70950587     0.04700
C3319       C  0.88413689  0.64183440  0.69759821    -0.11400
C3320       C  0.88390792  0.65328558  0.71039518     0.24000
C3321       C  0.87695204  0.65120254  0.73573714    -0.12000
C3322       C  0.86932450  0.63752205  0.74729647     0.05400
C3323       C  0.89034687  0.66742540  0.69682453     0.27800
C3324       C  0.90492617  0.67723946  0.69978800    -0.12700
C3325       C  0.91065271  0.69112961  0.68940624     0.05900
C3326       C  0.90177974  0.69535212  0.67629973    -0.08600
C3327       C  0.88725057  0.68530810  0.67240076     0.06700
C3328       C  0.88160652  0.67137448  0.68247472    -0.13000
Br3329     Br  0.87761510  0.66720786  0.75416610    -0.05100
Br3330     Br  0.87835411  0.61295334  0.69257917     0.00600
Br3331     Br  0.93076536  0.70423937  0.69256330     0.01000
Br3332     Br  0.86171995  0.65771234  0.67751239    -0.03400
Br3333     Br  0.85852249  0.63497565  0.78030804     0.01100
Br3334     Br  0.89408649  0.64482430  0.66333700    -0.02700
Br3335     Br  0.91694084  0.67170434  0.71878891    -0.03500
Br3336     Br  0.87467825  0.69075380  0.65525305     0.00400
C3337       C  0.03597388  0.79697396  0.60980060     0.01800
C3338       C  0.02739718  0.78207787  0.61197248     0.04700
C3339       C  0.01311167  0.77592833  0.61999526    -0.11400
C3340       C  0.00724173  0.78457697  0.62580097     0.24000
C3341       C  0.01577610  0.79945108  0.62388107    -0.12000
C3342       C  0.03010999  0.80564998  0.61595964     0.05400
C3343       C  0.99189977  0.77787555  0.63254389     0.27800
C3344       C  0.98211276  0.77594905  0.61170453    -0.12700
C3345       C  0.96747794  0.76854150  0.61722568     0.05900
C3346       C  0.96248192  0.76289498  0.64364008    -0.08600
C3347       C  0.97230230  0.76498192  0.66463508     0.06700
C3348       C  0.98698349  0.77256617  0.65913186    -0.13000
Br3349     Br  0.00775349  0.81127964  0.63224555    -0.05100
Br3350     Br  0.03491160  0.76992557  0.60259512     0.00600
Br3351     Br  0.95434607  0.76648104  0.58849239     0.01000
Br3352     Br  0.00043179  0.77543334  0.68775996    -0.03400
Br3353     Br  0.04181650  0.82606548  0.61501905     0.01100
Br3354     Br  0.00141001  0.75555311  0.62269026    -0.02700
Br3355     Br  0.98880164  0.78324954  0.57531155    -0.03500
Br3356     Br  0.96569077  0.75650980  0.70030391     0.00400
C3357       C  0.09664592  0.78725674  0.57537130     0.01800
C3358       C  0.08811824  0.77300447  0.56685578     0.04700
C3359       C  0.09447046  0.76509244  0.55853764    -0.11400
C3360       C  0.10934343  0.77136109  0.55857547     0.24000
C3361       C  0.11785850  0.78540139  0.56789310    -0.12000
C3362       C  0.11157388  0.79335315  0.57616553     0.05400
C3363       C  0.11618303  0.76383185  0.54620079     0.27800
C3364       C  0.12175546  0.75723043  0.56291720    -0.12700
C3365       C  0.13001842  0.75195397  0.55125422     0.05900
C3366       C  0.13227724  0.75277587  0.52248711    -0.08600
C3367       C  0.12574834  0.75847995  0.50567454     0.06700
C3368       C  0.11797017  0.76420339  0.51755815    -0.13000
Br3369     Br  0.13827116  0.79399570  0.56778926    -0.05100
Br3370     Br  0.06772854  0.76417712  0.56669397     0.00600
Br3371     Br  0.13917022  0.74486872  0.57543313     0.01000
Br3372     Br  0.11013196  0.77310661  0.99466862    -0.03400
Br3373     Br  0.12371435  0.81306477  0.58593543     0.01100
Br3374     Br  0.08292310  0.74578660  0.54603951    -0.02700
Br3375     Br  0.11834445  0.75583503  0.60195568    -0.03500
Br3376     Br  0.12708477  0.75829717  0.96617890     0.00400
C3377       C  0.23893680  0.36086355  0.51346595     0.01800
C3378       C  0.22432455  0.35072608  0.51103606     0.04700
C3379       C  0.21913257  0.33672638  0.52031005    -0.11400
C3380       C  0.22835460  0.33280883  0.53270778     0.24000
C3381       C  0.24291821  0.34278869  0.53491628    -0.12000
C3382       C  0.24824598  0.35671531  0.52500110     0.05400
C3383       C  0.22243961  0.31829483  0.54431040     0.27800
C3384       C  0.21794551  0.31570295  0.57182065    -0.12700
C3385       C  0.21041140  0.30170649  0.58184346     0.05900
C3386       C  0.20688198  0.29012460  0.56410468    -0.08600
C3387       C  0.21230289  0.29283993  0.53698701     0.06700
C3388       C  0.22010557  0.30691028  0.52725441    -0.13000
Br3389     Br  0.25543509  0.33737337  0.05221605    -0.05100
Br3390     Br  0.21100002  0.35605584  0.49729453     0.00600
Br3391     Br  0.20526435  0.29858042  0.62020086     0.01000
Br3392     Br  0.22701051  0.31069669  0.48999746    -0.03400
Br3393     Br  0.26840080  0.36988154  0.02668118     0.01100
Br3394     Br  0.19919150  0.32287399  0.51698205    -0.02700
Br3395     Br  0.22149681  0.33137792  0.59536335    -0.03500
Br3396     Br  0.20836214  0.27752356  0.51207905     0.00400
C3397       C  0.19646696  0.22435849  0.60947471     0.01800
C3398       C  0.20189151  0.21932998  0.58876955     0.04700
C3399       C  0.20917976  0.21216227  0.59593037    -0.11400
C3400       C  0.21104332  0.20991596  0.62372859     0.24000
C3401       C  0.20560088  0.21481644  0.64441591    -0.12000
C3402       C  0.19842069  0.22210706  0.63738798     0.05400
C3403       C  0.21868117  0.20230873  0.63116734     0.27800
C3404       C  0.21128801  0.18738552  0.63230678    -0.12700
C3405       C  0.21858859  0.18009906  0.63820690     0.05900
C3406       C  0.23337693  0.18774015  0.64293226    -0.08600
C3407       C  0.24071120  0.20273545  0.64249053     0.06700
C3408       C  0.23333137  0.20998719  0.63682936    -0.13000
Br3409     Br  0.20788440  0.21128885  0.68242151    -0.05100
Br3410     Br  0.20012685  0.22288291  0.55051952     0.00600
Br3411     Br  0.20831623  0.15960003  0.63830722     0.01000
Br3412     Br  0.24315931  0.23046643  0.63724267    -0.03400
Br3413     Br  0.19082207  0.22840965  0.66630919     0.01100
Br3414     Br  0.21675084  0.20544152  0.56770309    -0.02700
Br3415     Br  0.19110063  0.17697250  0.62573713    -0.03500
Br3416     Br  0.26073832  0.21344428  0.65076130     0.00400
C3417       C  0.30025035  0.19232567  0.67366191     0.01800
C3418       C  0.30643878  0.18677258  0.69158022     0.04700
C3419       C  0.32061997  0.19523965  0.69993087    -0.11400
C3420       C  0.32870886  0.20927544  0.69027291     0.24000
C3421       C  0.32255510  0.21485324  0.67231876    -0.12000
C3422       C  0.30827990  0.20641160  0.66417519     0.05400
C3423       C  0.34390719  0.21781484  0.69786344     0.27800
C3424       C  0.34814435  0.22656046  0.72131508    -0.12700
C3425       C  0.36251773  0.23391074  0.72927215     0.05900
C3426       C  0.37262272  0.23237912  0.71395961    -0.08600
C3427       C  0.36839860  0.22391421  0.69007686     0.06700
C3428       C  0.35405928  0.21658246  0.68219289    -0.13000
Br3429     Br  0.33379008  0.23401513  0.65886219    -0.05100
Br3430     Br  0.29554198  0.16737269  0.70415299     0.00600
Br3431     Br  0.36845234  0.24636066  0.76067212     0.01000
Br3432     Br  0.34809164  0.20409652  0.65082066    -0.03400
Br3433     Br  0.29953575  0.21431410  0.64118917     0.01100
Br3434     Br  0.32909176  0.18758756  0.72435237    -0.02700
Br3435     Br  0.33413136  0.22790081  0.74313887    -0.03500
Br3436     Br  0.38202960  0.22147330  0.66905967     0.00400
C3437       C  0.24471866  0.13374925  0.58960945     0.01800
C3438       C  0.25313045  0.13722431  0.56576301     0.04700
C3439       C  0.25028010  0.12677866  0.54590069    -0.11400
C3440       C  0.23876001  0.11289100  0.54931602     0.24000
C3441       C  0.23008213  0.10946083  0.57268691    -0.12000
C3442       C  0.23311054  0.11981913  0.59294349     0.05400
C3443       C  0.23616531  0.10192657  0.52847018     0.27800
C3444       C  0.22934235  0.10147395  0.00362433    -0.12700
C3445       C  0.22953350  0.09320751  0.98163014     0.05900
C3446       C  0.23610996  0.08493266  0.98493459    -0.08600
C3447       C  0.24129963  0.08405126  0.01099520     0.06700
C3448       C  0.24169315  0.09282271  0.53245989    -0.13000
Br3449     Br  0.21426566  0.09044028  0.57706632    -0.05100
Br3450     Br  0.26823791  0.15645122  0.55958799     0.00600
Br3451     Br  0.22203448  0.09448261  0.94646457     0.01000
Br3452     Br  0.25073445  0.09312680  0.56675866    -0.03400
Br3453     Br  0.22186262  0.11452272  0.62599452     0.01100
Br3454     Br  0.26241334  0.13137094  0.51420397    -0.02700
Br3455     Br  0.22056002  0.11295447  0.99931569    -0.03500
Br3456     Br  0.24770027  0.07067488  0.01734638     0.00400
C3457       C  0.24701386  0.13641358  0.72670745     0.01800
C3458       C  0.24021161  0.13715567  0.75073927     0.04700
C3459       C  0.23983843  0.12945197  0.77428718    -0.11400
C3460       C  0.24615885  0.12090877  0.77382969     0.24000
C3461       C  0.25253547  0.11979270  0.74961567    -0.12000
C3462       C  0.25302697  0.12754541  0.72613277     0.05400
C3463       C  0.24615846  0.11300760  0.79867573     0.27800
C3464       C  0.25726901  0.11948071  0.81797576    -0.12700
C3465       C  0.25778224  0.11163987  0.84054148     0.05900
C3466       C  0.24738082  0.09718497  0.84341624    -0.08600
C3467       C  0.23624266  0.09077605  0.82415099     0.06700
C3468       C  0.23556987  0.09870314  0.80198269    -0.13000
Br3469     Br  0.26084162  0.10776182  0.74894360    -0.05100
Br3470     Br  0.23090052  0.14826906  0.75113592     0.00600
Br3471     Br  0.27316610  0.12052223  0.86662136     0.01000
Br3472     Br  0.22030092  0.08993880  0.77569115    -0.03400
Br3473     Br  0.26283478  0.12660765  0.69393786     0.01100
Br3474     Br  0.23070912  0.13058317  0.80724047    -0.02700
Br3475     Br  0.27208152  0.13892123  0.81271205    -0.03500
Br3476     Br  0.22164174  0.07120596  0.82848648     0.00400
C3477       C  0.29319126  0.08562226  0.93018343     0.01800
C3478       C  0.30345582  0.08926433  0.90939050     0.04700
C3479       C  0.31797798  0.09626987  0.91616283    -0.11400
C3480       C  0.32228116  0.09907399  0.94380580     0.24000
C3481       C  0.31203594  0.09469107  0.96470618    -0.12000
C3482       C  0.29754606  0.08819318  0.95795387     0.05400
C3483       C  0.33755539  0.10773996  0.95089771     0.27800
C3484       C  0.34578004  0.10127512  0.95562040    -0.12700
C3485       C  0.36006487  0.10956292  0.96387960     0.05900
C3486       C  0.36620783  0.12439056  0.96701826    -0.08600
C3487       C  0.35799592  0.13085044  0.96160818     0.06700
C3488       C  0.34371179  0.12253237  0.95370882    -0.13000
Br3489     Br  0.31797982  0.09829073  0.50262738    -0.05100
Br3490     Br  0.29767366  0.08434848  0.87164599     0.00600
Br3491     Br  0.37087127  0.10042171  0.47236280     0.01000
Br3492     Br  0.33246387  0.13136509  0.94657041    -0.03400
Br3493     Br  0.28396284  0.08415015  0.98685673     0.01100
Br3494     Br  0.33207435  0.10276179  0.88757393    -0.02700
Br3495     Br  0.33735910  0.08105474  0.95085596    -0.03500
Br3496     Br  0.36639333  0.15121293  0.96374619     0.00400
C3497       C  0.20333450  0.89746755  0.81167997     0.01800
C3498       C  0.20515271  0.89683571  0.78304758     0.04700
C3499       C  0.21342372  0.89123215  0.77300304    -0.11400
C3500       C  0.21937363  0.88562060  0.79127393     0.24000
C3501       C  0.21793372  0.88657281  0.81978322    -0.12000
C3502       C  0.21014177  0.89268442  0.83000834     0.05400
C3503       C  0.22614536  0.87769348  0.78052689     0.27800
C3504       C  0.21764934  0.86318632  0.77414972    -0.12700
C3505       C  0.22396712  0.85530532  0.76566240     0.05900
C3506       C  0.23885178  0.86200810  0.76260753    -0.08600
C3507       C  0.24731150  0.87667628  0.76816609     0.06700
C3508       C  0.24095709  0.88447022  0.77720382    -0.13000
Br3509     Br  0.22631535  0.87904980  0.84475194    -0.05100
Br3510     Br  0.19522736  0.90220357  0.75707496     0.00600
Br3511     Br  0.21214949  0.83508394  0.76027753     0.01000
Br3512     Br  0.25242606  0.90449441  0.78474228    -0.03400
Br3513     Br  0.20910879  0.89467598  0.86918071     0.01100
Br3514     Br  0.21629540  0.89077057  0.73405269    -0.02700
Br3515     Br  0.19726459  0.85412847  0.77708222    -0.03500
Br3516     Br  0.26753627  0.88630483  0.76238623     0.00400
C3517       C  0.14478604  0.88831658  0.76636009     0.01800
C3518       C  0.14370309  0.87556266  0.75678869     0.04700
C3519       C  0.13498510  0.86845230  0.73419829    -0.11400
C3520       C  0.12735057  0.87402820  0.72095520     0.24000
C3521       C  0.12861736  0.88687292  0.72997651    -0.12000
C3522       C  0.13727309  0.89399956  0.75272717     0.05400
C3523       C  0.11797917  0.86618395  0.69757780     0.27800
C3524       C  0.12338799  0.86903297  0.67067869    -0.12700
C3525       C  0.11531834  0.86006538  0.64902607     0.05900
C3526       C  0.10178478  0.84826124  0.65431647    -0.08600
C3527       C  0.09597190  0.84607801  0.68088602     0.06700
C3528       C  0.10410745  0.85497435  0.70254671    -0.13000
Br3529     Br  0.11838444  0.89456131  0.71107240    -0.05100
Br3530     Br  0.15459624  0.86799328  0.77363131     0.00600
Br3531     Br  0.12332837  0.86338841  0.61263612     0.01000
Br3532     Br  0.09655806  0.85151095  0.73930599    -0.03400
Br3533     Br  0.13808280  0.91106099  0.76598907     0.01100
Br3534     Br  0.13350597  0.85103416  0.72104197    -0.02700
Br3535     Br  0.14216943  0.88481966  0.66394998    -0.03500
Br3536     Br  0.07675998  0.83107637  0.68744759     0.00400
C3537       C  0.14553460  0.88604503  0.90864777     0.01800
C3538       C  0.15109297  0.88718071  0.93535838     0.04700
C3539       C  0.14227950  0.87848048  0.95663934    -0.11400
C3540       C  0.12787143  0.86872197  0.95143983     0.24000
C3541       C  0.12221216  0.86782317  0.92503895    -0.12000
C3542       C  0.13101321  0.87635320  0.90362255     0.05400
C3543       C  0.11870279  0.85922928  0.97365638     0.27800
C3544       C  0.11836317  0.84634736  0.97900132    -0.12700
C3545       C  0.11001461  0.83750780  0.50057235     0.05900
C3546       C  0.10175709  0.84142472  0.51657852    -0.08600
C3547       C  0.10172135  0.85407959  0.51056969     0.06700
C3548       C  0.11042837  0.86309616  0.48951332    -0.13000
Br3549     Br  0.10237392  0.85468373  0.91824439    -0.05100
Br3550     Br  0.17061376  0.90101374  0.94328002     0.00600
Br3551     Br  0.10970191  0.81991711  0.50792192     0.01000
Br3552     Br  0.11159769  0.88113401  0.48307607    -0.03400
Br3553     Br  0.12321319  0.87389294  0.86704270     0.01100
Br3554     Br  0.14985336  0.87984783  0.99307739    -0.02700
Br3555     Br  0.12952586  0.84091512  0.95689529    -0.03500
Br3556     Br  0.09029647  0.85943764  0.53195441     0.00400
C3557       C  0.18979164  0.95323523  0.85622274     0.01800
C3558       C  0.20128089  0.96329903  0.84049100     0.04700
C3559       C  0.20777006  0.97780328  0.84703079    -0.11400
C3560       C  0.20271741  0.98226566  0.86923733     0.24000
C3561       C  0.19094017  0.97222592  0.88445634    -0.12000
C3562       C  0.18451682  0.95770235  0.87801942     0.05400
C3563       C  0.21015469  0.99744834  0.87723213     0.27800
C3564       C  0.22137831  0.00257196  0.89631041    -0.12700
C3565       C  0.22867542  0.01701385  0.90361969     0.05900
C3566       C  0.22475836  0.02641750  0.89186692    -0.08600
C3567       C  0.21340317  0.02121170  0.87293034     0.06700
C3568       C  0.20616514  0.00676484  0.86556394    -0.13000
Br3569     Br  0.18379006  0.97843346  0.91429396    -0.05100
Br3570     Br  0.20801899  0.95714838  0.80986611     0.00600
Br3571     Br  0.24366886  0.02372380  0.93060797     0.01000
Br3572     Br  0.19096758  0.99968901  0.83899871    -0.03400
Br3573     Br  0.16879946  0.94384893  0.89954150     0.01100
Br3574     Br  0.22369397  0.99159750  0.82586137    -0.02700
Br3575     Br  0.22676969  0.98971107  0.91220872    -0.03500
Br3576     Br  0.20818970  0.03392696  0.85582551     0.00400
C3577       C  0.90530206  0.19710991  0.93384500     0.01800
C3578       C  0.89607561  0.19926125  0.91663550     0.04700
C3579       C  0.88973230  0.20694724  0.92623791    -0.11400
C3580       C  0.89267404  0.21266895  0.95291712     0.24000
C3581       C  0.90242091  0.21119250  0.96960213    -0.12000
C3582       C  0.90873738  0.20345200  0.96016370     0.05400
C3583       C  0.88501227  0.21966110  0.96390323     0.27800
C3584       C  0.89114925  0.23452122  0.96253179    -0.12700
C3585       C  0.88379669  0.24105705  0.97297298     0.05900
C3586       C  0.87017231  0.23272290  0.98440595    -0.08600
C3587       C  0.86403995  0.21782892  0.98573871     0.06700
C3588       C  0.87148627  0.21134206  0.97566580    -0.13000
Br3589     Br  0.90674528  0.21946876  0.00582272    -0.05100
Br3590     Br  0.89250824  0.19223295  0.87941793     0.00600
Br3591     Br  0.89257618  0.26145551  0.47247795     0.01000
Br3592     Br  0.86303778  0.19096901  0.97732149    -0.03400
Br3593     Br  0.92142126  0.20098542  0.98430434     0.01100
Br3594     Br  0.87677335  0.20949292  0.90309740    -0.02700
Br3595     Br  0.90950461  0.24582329  0.94578265    -0.03500
Br3596     Br  0.84501209  0.20612286  0.99961083     0.00400
C3597       C  0.09342073  0.29140304  0.81740530     0.01800
C3598       C  0.09450380  0.29515028  0.78932442     0.04700
C3599       C  0.10070593  0.30949622  0.78167241    -0.11400
C3600       C  0.10602005  0.32016146  0.80185484     0.24000
C3601       C  0.10414568  0.31644920  0.82982664    -0.12000
C3602       C  0.09765213  0.30208348  0.83762006     0.05400
C3603       C  0.11505156  0.33516861  0.79340730     0.27800
C3604       C  0.12954040  0.34036449  0.78824696    -0.12700
C3605       C  0.13807668  0.35416656  0.77801321     0.05900
C3606       C  0.13212426  0.36281589  0.77256618    -0.08600
C3607       C  0.11770247  0.35776165  0.77852416     0.06700
C3608       C  0.10918152  0.34395164  0.78904061    -0.13000
Br3609     Br  0.11124609  0.33114876  0.85734964    -0.05100
Br3610     Br  0.08876227  0.28100232  0.76085070     0.00600
Br3611     Br  0.15811836  0.36140205  0.77279169     0.01000
Br3612     Br  0.08946601  0.33694900  0.79727177    -0.03400
Br3613     Br  0.09437071  0.29712444  0.87604442     0.01100
Br3614     Br  0.10287685  0.31474790  0.74335627    -0.02700
Br3615     Br  0.13764578  0.32843464  0.79512251    -0.03500
Br3616     Br  0.10941976  0.36942484  0.77111138     0.00400
C3617       C  0.14782954  0.24017041  0.51596517     0.01800
C3618       C  0.15251938  0.25138259  0.49683407     0.04700
C3619       C  0.14346534  0.25081451  0.97567443    -0.11400
C3620       C  0.12974324  0.23895594  0.97323634     0.24000
C3621       C  0.12519509  0.22748915  0.99161418    -0.12000
C3622       C  0.13422433  0.22809314  0.51301677     0.05400
C3623       C  0.12015335  0.23871001  0.95132856     0.27800
C3624       C  0.11081921  0.24381924  0.95667917    -0.12700
C3625       C  0.10273219  0.24490317  0.93523829     0.05900
C3626       C  0.10392190  0.24081163  0.90833777    -0.08600
C3627       C  0.11299417  0.23530107  0.90322838     0.06700
C3628       C  0.12105578  0.23423824  0.92472673    -0.13000
Br3629     Br  0.10641903  0.21124154  0.98780354    -0.05100
Br3630     Br  0.17149011  0.26746155  0.49915179     0.00600
Br3631     Br  0.08987966  0.25179824  0.94299681     0.01000
Br3632     Br  0.13378995  0.22712925  0.91774595    -0.03400
Br3633     Br  0.12755673  0.21276334  0.53915374     0.01100
Br3634     Br  0.14972442  0.26647095  0.95028550    -0.02700
Br3635     Br  0.10940944  0.24962379  0.49340997    -0.03500
Br3636     Br  0.11539718  0.23028531  0.86644476     0.00400
C3637       C  0.10532033  0.24233379  0.76931227     0.01800
C3638       C  0.10353098  0.22897505  0.76204920     0.04700
C3639       C  0.11187450  0.22800302  0.74102912    -0.11400
C3640       C  0.12170104  0.24027551  0.72668721     0.24000
C3641       C  0.12324034  0.25352382  0.73344263    -0.12000
C3642       C  0.11518583  0.25458786  0.75477321     0.05400
C3643       C  0.13022749  0.23937811  0.70390014     0.27800
C3644       C  0.14447529  0.24317053  0.70835856    -0.12700
C3645       C  0.15308316  0.24407248  0.68607761     0.05900
C3646       C  0.14734019  0.24073810  0.65928276    -0.08600
C3647       C  0.13286338  0.23632091  0.65508956     0.06700
C3648       C  0.12443724  0.23593833  0.67727672    -0.13000
Br3649     Br  0.13641555  0.27025615  0.71316865    -0.05100
Br3650     Br  0.09013832  0.21205331  0.78146484     0.00600
Br3651     Br  0.17271868  0.24977254  0.69254753     0.01000
Br3652     Br  0.10517391  0.23163307  0.67108551    -0.03400
Br3653     Br  0.11739604  0.27291184  0.76305659     0.01100
Br3654     Br  0.11017485  0.20996255  0.73215912    -0.02700
Br3655     Br  0.15225997  0.24757443  0.74500993    -0.03500
Br3656     Br  0.12467405  0.23176211  0.61874127     0.00400
C3657       C  0.96572047  0.18765744  0.89731585     0.01800
C3658       C  0.97443346  0.20209857  0.90421301     0.04700
C3659       C  0.98891574  0.20928757  0.89731892    -0.11400
C3660       C  0.99485042  0.20198700  0.88414130     0.24000
C3661       C  0.98631208  0.18740233  0.87837510    -0.12000
C3662       C  0.97174502  0.18025414  0.88476035     0.05400
C3663       C  0.00998685  0.20972388  0.87572621     0.27800
C3664       C  0.01367828  0.21500129  0.84875272    -0.12700
C3665       C  0.02802269  0.22245945  0.84074687     0.05900
C3666       C  0.03873685  0.22462110  0.85971671    -0.08600
C3667       C  0.03500102  0.21920682  0.88664204     0.06700
C3668       C  0.02066625  0.21179777  0.89461255    -0.13000
Br3669     Br  0.99462210  0.17736995  0.86113999    -0.05100
Br3670     Br  0.96664182  0.21191214  0.92416925     0.00600
Br3671     Br  0.03296080  0.23033273  0.80423805     0.01000
Br3672     Br  0.01559134  0.20435766  0.93136957    -0.03400
Br3673     Br  0.95996691  0.16057320  0.87473443     0.01100
Br3674     Br  0.00059596  0.22923563  0.90536997    -0.02700
Br3675     Br  0.99899585  0.21206498  0.82290389    -0.03500
Br3676     Br  0.04947364  0.22134439  0.91235699     0.00400
C3677       C  0.90043820  0.14445751  0.83610097     0.01800
C3678       C  0.88826487  0.13095559  0.83955447     0.04700
C3679       C  0.88075941  0.12294619  0.81652208    -0.11400
C3680       C  0.88541349  0.12831475  0.78993964     0.24000
C3681       C  0.89760102  0.14174704  0.78637366    -0.12000
C3682       C  0.90507559  0.14986261  0.80943738     0.05400
C3683       C  0.87692648  0.12007820  0.76592550     0.27800
C3684       C  0.87902511  0.10942281  0.75439550    -0.12700
C3685       C  0.87020108  0.10092115  0.73292147     0.05900
C3686       C  0.85922416  0.10302908  0.72307820    -0.08600
C3687       C  0.85727461  0.11384745  0.73439743     0.06700
C3688       C  0.86611771  0.12234557  0.75577375    -0.13000
Br3689     Br  0.90385223  0.14901907  0.74983172    -0.05100
Br3690     Br  0.88118981  0.12375169  0.87584711     0.00600
Br3691     Br  0.87348524  0.08677950  0.71628269     0.01000
Br3692     Br  0.86320266  0.13685987  0.77187337    -0.03400
Br3693     Br  0.92181456  0.16820574  0.80441874     0.01100
Br3694     Br  0.86373529  0.10477355  0.82124330    -0.02700
Br3695     Br  0.89387576  0.10641085  0.76839621    -0.03500
Br3696     Br  0.84198703  0.11658186  0.72175388     0.00400
C3697       C  0.90119427  0.13984436  0.98128927     0.01800
C3698       C  0.89663850  0.14482327  0.00355256     0.04700
C3699       C  0.88863759  0.13552730  0.52479889    -0.11400
C3700       C  0.88499701  0.12118177  0.52376827     0.24000
C3701       C  0.88992459  0.11626331  0.00216350    -0.12000
C3702       C  0.89797314  0.12556444  0.98086732     0.05400
C3703       C  0.87525903  0.11120294  0.54469271     0.27800
C3704       C  0.88069455  0.10887857  0.56911752    -0.12700
C3705       C  0.87144352  0.10110376  0.59065106     0.05900
C3706       C  0.85664115  0.09542516  0.58752775    -0.08600
C3707       C  0.85119881  0.09696753  0.56222159     0.06700
C3708       C  0.86050939  0.10494452  0.54096764    -0.13000
Br3709     Br  0.88540583  0.09673135  0.00173684    -0.05100
Br3710     Br  0.90007671  0.16398837  0.00394500     0.00600
Br3711     Br  0.87938279  0.09935719  0.62495540     0.01000
Br3712     Br  0.85314546  0.10770222  0.50686383    -0.03400
Br3713     Br  0.90465087  0.11871195  0.95128466     0.01100
Br3714     Br  0.88221311  0.14225813  0.55509602    -0.02700
Br3715     Br  0.90090576  0.11683126  0.57319051    -0.03500
Br3716     Br  0.83097980  0.08786805  0.55615799     0.00400
C3717       C  0.76592031  0.12845597  0.73131312     0.01800
C3718       C  0.78052123  0.13319572  0.73507856     0.04700
C3719       C  0.78632295  0.12509726  0.72507458    -0.11400
C3720       C  0.77764329  0.11219934  0.71138844     0.24000
C3721       C  0.76307730  0.10730485  0.70796100    -0.12000
C3722       C  0.75721040  0.11540148  0.71783284     0.05400
C3723       C  0.78405585  0.10405121  0.70006896     0.27800
C3724       C  0.79063687  0.10763437  0.67418235    -0.12700
C3725       C  0.79823552  0.10116753  0.66470266     0.05900
C3726       C  0.79906414  0.09080070  0.68099894    -0.08600
C3727       C  0.79174128  0.08670276  0.70636011     0.06700
C3728       C  0.78443847  0.09344746  0.71594027    -0.13000
Br3729     Br  0.75127634  0.08954802  0.68937481    -0.05100
Br3730     Br  0.79301845  0.15124425  0.75228396     0.00600
Br3731     Br  0.80842343  0.10767353  0.63045700     0.01000
Br3732     Br  0.77537228  0.08860191  0.75141064    -0.03400
Br3733     Br  0.73713707  0.10825669  0.71357735     0.01100
Br3734     Br  0.80634763  0.13182816  0.72933535    -0.02700
Br3735     Br  0.78973483  0.12199403  0.65236769    -0.03500
Br3736     Br  0.79138383  0.07168695  0.72820186     0.00400
C3737       C  0.75512755  0.89037972  0.52912015     0.01800
C3738       C  0.75713450  0.89560214  0.50193979     0.04700
C3739       C  0.75632083  0.88688212  0.97991519    -0.11400
C3740       C  0.75354975  0.87298727  0.98491164     0.24000
C3741       C  0.75215821  0.86797008  0.51200015    -0.12000
C3742       C  0.75309937  0.87668149  0.53409020     0.05400
C3743       C  0.75171049  0.86353672  0.96154617     0.27800
C3744       C  0.73823707  0.85530745  0.94948867    -0.12700
C3745       C  0.73655062  0.84684107  0.92646137     0.05900
C3746       C  0.74830740  0.84627690  0.91583653    -0.08600
C3747       C  0.76179330  0.85445578  0.92819991     0.06700
C3748       C  0.76346806  0.86309188  0.95094771    -0.13000
Br3749     Br  0.74841686  0.84891821  0.51861146    -0.05100
Br3750     Br  0.75999200  0.91425191  0.99424146     0.00600
Br3751     Br  0.71831649  0.83695850  0.90836324     0.01000
Br3752     Br  0.78186345  0.87438385  0.96778183    -0.03400
Br3753     Br  0.75196423  0.86986229  0.57118428     0.01100
Br3754     Br  0.75831562  0.89364792  0.94262413    -0.02700
Br3755     Br  0.72212213  0.85578544  0.96455736    -0.03500
Br3756     Br  0.77800178  0.85362851  0.91477389     0.00400
C3757       C  0.75380283  0.85098560  0.77868162     0.01800
C3758       C  0.76088576  0.85087426  0.75452157     0.04700
C3759       C  0.76234820  0.85993461  0.73257559    -0.11400
C3760       C  0.75682144  0.86911726  0.73479853     0.24000
C3761       C  0.75057038  0.86988438  0.75942632    -0.12000
C3762       C  0.74907667  0.86086885  0.78136533     0.05400
C3763       C  0.75617932  0.87685151  0.71040032     0.27800
C3764       C  0.76669313  0.89106717  0.70582369    -0.12700
C3765       C  0.76569432  0.89839526  0.68290827     0.05900
C3766       C  0.75396082  0.89158657  0.66498472    -0.08600
C3767       C  0.74352468  0.87728446  0.66951040     0.06700
C3768       C  0.74463186  0.86995568  0.69221832    -0.13000
Br3769     Br  0.74350996  0.88292253  0.76249698    -0.05100
Br3770     Br  0.76761323  0.83763702  0.75031177     0.00600
Br3771     Br  0.78013198  0.91788875  0.67686856     0.01000
Br3772     Br  0.73015177  0.85049818  0.69892268    -0.03400
Br3773     Br  0.74065769  0.86229051  0.81517706     0.01100
Br3774     Br  0.77121426  0.85932871  0.69876096    -0.02700
Br3775     Br  0.78211078  0.90057158  0.73160976    -0.03500
Br3776     Br  0.72800636  0.86742111  0.64396566     0.00400
C3777       C  0.80892146  0.03152131  0.65061282     0.01800
C3778       C  0.79415307  0.02274486  0.65419456     0.04700
C3779       C  0.78748484  0.00823009  0.64751479    -0.11400
C3780       C  0.79558557  0.00230663  0.63803244     0.24000
C3781       C  0.81040594  0.01090970  0.63554723    -0.12000
C3782       C  0.81705605  0.02551744  0.64150273     0.05400
C3783       C  0.78839972  0.98710668  0.62996073     0.27800
C3784       C  0.78519217  0.97655459  0.64989519    -0.12700
C3785       C  0.77732239  0.96210977  0.64262972     0.05900
C3786       C  0.77302369  0.95813564  0.61510942    -0.08600
C3787       C  0.77692099  0.96877238  0.59490816     0.06700
C3788       C  0.78438973  0.98320289  0.60242652    -0.13000
Br3789     Br  0.82148717  0.00264187  0.62335592    -0.05100
Br3790     Br  0.78309857  0.03045503  0.66933312     0.00600
Br3791     Br  0.77296296  0.94785630  0.67041695     0.01000
Br3792     Br  0.78896026  0.99773253  0.57514875    -0.03400
Br3793     Br  0.83716535  0.03739532  0.63526521     0.01100
Br3794     Br  0.76716167  0.99645239  0.65061539    -0.02700
Br3795     Br  0.79181979  0.98200656  0.68708693    -0.03500
Br3796     Br  0.77154057  0.96369614  0.55706060     0.00400
C3797       C  0.63342194  0.86626847  0.52388722     0.01800
C3798       C  0.64403331  0.86866105  0.50449961     0.04700
C3799       C  0.65845663  0.87661747  0.51182856    -0.11400
C3800       C  0.66237220  0.88260911  0.53819403     0.24000
C3801       C  0.65191060  0.88142989  0.55658888    -0.12000
C3802       C  0.63745135  0.87309177  0.54973767     0.05400
C3803       C  0.67721251  0.88859776  0.54788183     0.27800
C3804       C  0.68119461  0.87958917  0.56099403    -0.12700
C3805       C  0.69511203  0.88504860  0.57084427     0.05900
C3806       C  0.70510530  0.89967787  0.56810066    -0.08600
C3807       C  0.70105067  0.90870114  0.55507878     0.06700
C3808       C  0.68715420  0.90313387  0.54480688    -0.13000
Br3809     Br  0.65754189  0.89080370  0.59174215    -0.05100
Br3810     Br  0.63893280  0.86131549  0.96761075     0.00600
Br3811     Br  0.70051156  0.87214814  0.58666585     0.01000
Br3812     Br  0.68160229  0.91535378  0.52671699    -0.03400
Br3813     Br  0.62344060  0.87013726  0.57709719     0.01100
Br3814     Br  0.67289676  0.87888183  0.98618190    -0.02700
Br3815     Br  0.66743331  0.85966787  0.56541068    -0.03500
Br3816     Br  0.71423870  0.92881644  0.55261733     0.00400
loop_ 
_geom_bond_atom_site_label_1 
_geom_bond_atom_site_label_2 
_geom_bond_distance 
_geom_bond_site_symmetry_2 
_ccdc_geom_bond_type 
O1            C4   1.265       .  A
O1           Cd6   2.455       .  S
C2           O11   1.264       .  A
C2            O7   1.264       .  A
C2         C1858   1.472       .  S
O3            C9   1.268       .  A
O3           Cd6   2.486       .  S
C4           O12   1.266       .  A
C4         C1898   1.482       .  S
C5           O10   1.266       .  A
C5            O8   1.264       .  A
C5         C1878   1.483       .  S
Cd6          O13   2.423       .  S
Cd6          O12   2.475       .  S
Cd6          O11   2.462       .  S
Cd6           O7   2.440       .  S
Cd6          O10   2.483       .  S
Cd6           O8   2.469       .  S
C9           O13   1.263       .  A
C9         C1829   1.480       .  S
O14          C17   1.265       .  A
O14         Cd19   2.454       .  S
C15          O24   1.263       .  A
C15          O20   1.267       .  A
C15        C1818   1.489       .  S
O16          C22   1.266       .  A
O16         Cd19   2.482       .  S
C17          O25   1.264       .  A
C17        C1798   1.479       .  S
C18          O23   1.269       .  A
C18          O21   1.264       .  A
C18        C1778   1.474       .  S
Cd19         O26   2.464       .  S
Cd19         O25   2.459       .  S
Cd19         O24   2.441       .  S
Cd19         O20   2.485       .  S
Cd19         O23   2.476       .  S
Cd19         O21   2.434       .  S
C22          O26   1.265       .  A
C22        C1869   1.481       .  S
O27          C30   1.264       .  A
O27         Cd32   2.451       .  S
C28          O37   1.266       .  A
C28          O33   1.265       .  A
C28        C1718   1.479       .  S
O29          C35   1.267       .  A
O29         Cd32   2.480       .  S
C30          O38   1.265       .  A
C30        C1689   1.482       .  S
C31          O36   1.267       .  A
C31          O34   1.262       .  A
C31        C1729   1.482       .  S
Cd32         O39   2.446       .  S
Cd32         O38   2.471       .  S
Cd32         O37   2.467       .  S
Cd32         O33   2.453       .  S
Cd32         O36   2.505       .  S
Cd32         O34   2.438       .  S
C35          O39   1.264       .  A
C35        C1758   1.478       .  S
O40          C43   1.266       .  A
O40         Cd45   2.474       .  S
C41          O50   1.265       .  A
C41          O46   1.264       .  A
C41        C1669   1.485       .  S
O42          C48   1.266       .  A
O42         Cd45   2.482       .  S
C43          O51   1.264       .  A
C43        C1769   1.476       .  S
C44          O49   1.265       .  A
C44          O47   1.264       .  A
C44        C1749   1.478       .  S
Cd45         O52   2.453       .  S
Cd45         O51   2.450       .  S
Cd45         O50   2.476       .  S
Cd45         O46   2.465       .  S
Cd45         O49   2.489       .  S
Cd45         O47   2.451       .  S
C48          O52   1.263       .  A
C48        C1789   1.478       .  S
O53          C56   1.266       .  A
O53         Cd58   2.468       .  S
C54          O63   1.265       .  A
C54          O59   1.265       .  A
C54        C1589   1.485       .  S
O55          C61   1.265       .  A
O55         Cd58   2.487       .  S
C56          O64   1.265       .  A
C56        C1629   1.482       .  S
C57          O62   1.264       .  A
C57          O60   1.265       .  A
C57        C1649   1.471       .  S
Cd58         O65   2.450       .  S
Cd58         O64   2.459       .  S
Cd58         O63   2.468       .  S
Cd58         O59   2.465       .  S
Cd58         O62   2.470       .  S
Cd58         O60   2.462       .  S
C61          O65   1.262       .  A
C61        C1609   1.480       .  S
O66          C69   1.262       .  A
O66         Cd71   2.475       .  S
C67          O76   1.266       .  A
C67          O72   1.266       .  A
C67        C1569   1.481       .  S
O68          C74   1.266       .  A
O68         Cd71   2.493       .  S
C69          O77   1.264       .  A
C69        C1558   1.477       .  S
C70          O75   1.265       .  A
C70          O73   1.263       .  A
C70        C1658   1.480       .  S
Cd71         O78   2.441       .  S
Cd71         O77   2.474       .  S
Cd71         O76   2.467       .  S
Cd71         O72   2.456       .  S
Cd71         O75   2.486       .  S
Cd71         O73   2.466       .  S
C74          O78   1.263       .  A
C74        C1538   1.480       .  S
O79          C82   1.268       .  A
O79         Cd84   2.460       .  S
C80          O89   1.261       .  A
C80          O85   1.267       .  A
C80        C1509   1.473       .  S
O81          C87   1.264       .  A
O81         Cd84   2.460       .  S
C82          O90   1.266       .  A
C82        C1529   1.481       .  S
C83          O88   1.263       .  A
C83          O86   1.264       .  A
C83        C1549   1.479       .  S
Cd84         O91   2.468       .  S
Cd84         O90   2.466       .  S
Cd84         O89   2.431       .  S
Cd84         O85   2.499       .  S
Cd84         O88   2.465       .  S
Cd84         O86   2.464       .  S
C87          O91   1.264       .  A
C87        C1498   1.478       .  S
O92          C95   1.265       .  A
O92         Cd97   2.444       .  S
C93         O102   1.264       .  A
C93          O98   1.264       .  A
C93        C1738   1.482       .  S
O94         C100   1.267       .  A
O94         Cd97   2.512       .  S
C95         O103   1.266       .  A
C95        C1478   1.488       .  S
C96         O101   1.268       .  A
C96          O99   1.265       .  A
C96        C1489   1.484       .  S
Cd97        O104   2.433       .  S
Cd97        O103   2.488       .  S
Cd97        O102   2.478       .  S
Cd97         O98   2.465       .  S
Cd97        O101   2.474       .  S
Cd97         O99   2.457       .  S
C100        O104   1.261       .  A
C100       C1709   1.478       .  S
O105        C108   1.264       .  A
O105       Cd110   2.459       .  S
C106        O115   1.267       .  A
C106        O111   1.265       .  A
C106       C1449   1.486       .  S
O107        C113   1.266       .  A
O107       Cd110   2.493       .  S
C108        O116   1.263       .  A
C108       C1618   1.474       .  S
C109        O114   1.269       .  A
C109        O112   1.264       .  A
C109       C1638   1.477       .  S
Cd110       O117   2.468       .  S
Cd110       O116   2.472       .  S
Cd110       O115   2.485       .  S
Cd110       O111   2.463       .  S
Cd110       O114   2.494       .  S
Cd110       O112   2.434       .  S
C113        O117   1.263       .  A
C113       C1429   1.485       .  S
O118        C121   1.265       .  A
O118       Cd123   2.476       .  S
C119        O128   1.264       .  A
C119        O124   1.265       .  A
C119       C1378   1.476       .  S
O120        C126   1.268       .  A
O120       Cd123   2.477       .  S
C121        O129   1.265       .  A
C121       C1418   1.484       .  S
C122        O127   1.266       .  A
C122        O125   1.264       .  A
C122       C1438   1.482       .  S
Cd123       O130   2.440       .  S
Cd123       O129   2.465       .  S
Cd123       O128   2.467       .  S
Cd123       O124   2.459       .  S
Cd123       O127   2.491       .  S
Cd123       O125   2.455       .  S
C126        O130   1.264       .  A
C126       C1389   1.475       .  S
O131        C134   1.266       .  A
O131       Cd136   2.458       .  S
C132        O141   1.263       .  A
C132        O137   1.265       .  A
C132       C1349   1.481       .  S
O133        C139   1.267       .  A
O133       Cd136   2.485       .  S
C134        O142   1.266       .  A
C134       C1398   1.478       .  S
C135        O140   1.267       .  A
C135        O138   1.265       .  A
C135       C1329   1.475       .  S
Cd136       O143   2.439       .  S
Cd136       O142   2.462       .  S
Cd136       O141   2.466       .  S
Cd136       O137   2.461       .  S
Cd136       O140   2.468       .  S
Cd136       O138   2.443       .  S
C139        O143   1.263       .  A
C139       C1369   1.479       .  S
O144        C147   1.266       .  A
O144       Cd149   2.459       .  S
C145        O154   1.265       .  A
C145        O150   1.265       .  A
C145       C1309   1.480       .  S
O146        C152   1.266       .  A
O146       Cd149   2.486       .  S
C147        O155   1.265       .  A
C147       C1838   1.479       .  S
C148        O153   1.265       .  A
C148        O151   1.263       .  A
C148       C1338   1.470       .  S
Cd149       O156   2.428       .  S
Cd149       O155   2.456       .  S
Cd149       O154   2.479       .  S
Cd149       O150   2.448       .  S
Cd149       O153   2.460       .  S
Cd149       O151   2.452       .  S
C152        O156   1.263       .  A
C152       C1849   1.477       .  S
O157        C160   1.264       .  A
O157       Cd162   2.443       .  S
C158        O167   1.265       .  A
C158        O163   1.264       .  A
C158       C1809   1.486       .  S
O159        C165   1.265       .  A
O159       Cd162   2.488       .  S
C160        O168   1.265       .  A
C160       C1269   1.472       .  S
C161        O166   1.268       .  A
C161        O164   1.264       .  A
C161       C1258   1.478       .  S
Cd162       O169   2.466       .  S
Cd162       O168   2.472       .  S
Cd162       O167   2.484       .  S
Cd162       O163   2.463       .  S
Cd162       O166   2.492       .  S
Cd162       O164   2.440       .  S
C165        O169   1.262       .  A
C165       C1289   1.482       .  S
O170        C173   1.267       .  A
O170       Cd175   2.485       .  S
C171        O180   1.264       .  A
C171        O176   1.265       .  A
C171       C1229   1.483       .  S
O172        C178   1.268       .  A
O172       Cd175   2.481       .  S
C173        O181   1.263       .  A
C173       C1189   1.489       .  S
C174        O179   1.266       .  A
C174        O177   1.264       .  A
C174       C1298   1.479       .  S
Cd175       O182   2.431       .  S
Cd175       O181   2.452       .  S
Cd175       O180   2.472       .  S
Cd175       O176   2.477       .  S
Cd175       O179   2.476       .  S
Cd175       O177   2.453       .  S
C178        O182   1.265       .  A
C178       C1209   1.474       .  S
O183        C186   1.268       .  A
O183       Cd188   2.458       .  S
C184        O193   1.264       .  A
C184        O189   1.265       .  A
C184       C1169   1.479       .  S
O185        C191   1.266       .  A
O185       Cd188   2.482       .  S
C186        O194   1.266       .  A
C186       C3126   1.476       .  S
C187        O192   1.266       .  A
C187        O190   1.265       .  A
C187       C1158   1.483       .  S
Cd188       O195   2.445       .  S
Cd188       O194   2.457       .  S
Cd188       O193   2.466       .  S
Cd188       O189   2.475       .  S
Cd188       O192   2.475       .  S
Cd188       O190   2.465       .  S
C191        O195   1.262       .  A
C191       C1238   1.474       .  S
O196       C2107   1.264       .  A
O196       Cd201   2.458       .  S
C197        O206   1.266       .  A
C197        O202   1.267       .  A
C197       C1118   1.478       .  S
O198        C204   1.265   1_556  A
O198       Cd201   2.495       .  S
C199        O207   1.265       .  A
C199       O2104   1.264       .  A
C199       C1578   1.480       .  S
C200        O205   1.266       .  A
C200        O203   1.262       .  A
C200       C1138   1.476       .  S
Cd201       O208   2.474   1_556  S
Cd201       O206   2.452   1_556  S
Cd201       O202   2.460   1_556  S
Cd201      O2115   2.485       .  S
Cd201      O2113   2.486       .  S
Cd201      O2111   2.459       .  S
O203      Cd2109   2.459       .  S
C204        O208   1.263       .  A
C204       C1149   1.485       .  S
O205      Cd2109   2.486       .  S
O207      Cd2109   2.485       .  S
O209        C212   1.265       .  A
O209       Cd214   2.447       .  S
C210        O219   1.266       .  A
C210        O215   1.266       .  A
C210       C1518   1.474       .  S
O211        C217   1.267       .  A
O211       Cd214   2.488       .  S
C212        O220   1.265       .  A
C212       C1129   1.478       .  S
C213        O218   1.269       .  A
C213        O216   1.262       .  A
C213       C1109   1.487       .  S
Cd214       O221   2.440       .  S
Cd214       O220   2.471       .  S
Cd214       O219   2.457       .  S
Cd214       O215   2.454       .  S
Cd214       O218   2.500       .  S
Cd214       O216   2.431       .  S
C217        O221   1.263       .  A
C217       C1089   1.477       .  S
O222        C225   1.266       .  A
O222       Cd227   2.453       .  S
C223        O232   1.262       .  A
C223        O228   1.263       .  A
C223       C1029   1.476       .  S
O224        C230   1.268       .  A
O224       Cd227   2.488       .  S
C225        O233   1.268       .  A
C225       C1069   1.487       .  S
C226        O231   1.264       .  A
C226        O229   1.263       .  A
C226       C1098   1.482       .  S
Cd227       O234   2.419       .  S
Cd227       O233   2.471       .  S
Cd227       O232   2.470       .  S
Cd227       O228   2.463       .  S
Cd227       O231   2.491       .  S
Cd227       O229   2.467       .  S
C230        O234   1.263       .  A
C230       C1058   1.482       .  S
O235        C238   1.264       .  A
O235       Cd240   2.459       .  S
C236        O245   1.265       .  A
C236        O241   1.265       .  A
C236       C1009   1.486       .  S
O237        C243   1.267       .  A
O237       Cd240   2.477       .  S
C238        O246   1.264       .  A
C238       C2957   1.480       .  S
C239        O244   1.264       .  A
C239        O242   1.264       .  A
C239        C998   1.482       .  S
Cd240       O247   2.426       .  S
Cd240       O246   2.480       .  S
Cd240       O245   2.466       .  S
Cd240       O241   2.481       .  S
Cd240       O244   2.475       .  S
Cd240       O242   2.470       .  S
C243        O247   1.264       .  A
C243       C1038   1.478       .  S
O248        C251   1.266       .  A
O248       Cd253   2.448       .  S
C249        O258   1.264       .  A
C249       O2162   1.264       .  A
C249       C1358   1.478       .  S
O250        C256   1.266       .  A
O250      Cd2161   2.483       .  S
C251        O259   1.267       .  A
C251        C958   1.482       .  S
C252        O257   1.265       .  A
C252        O255   1.263       .  A
C252        C989   1.480       .  S
Cd253       O259   2.466       .  S
Cd253       O254   2.456       .  S
Cd253       O257   2.476       .  S
Cd253       O255   2.459       .  S
Cd253      O2158   2.483   1_554  S
Cd253      O2168   2.452   1_554  S
Cd253      O2166   2.470   1_554  S
O254       C2157   1.264   1_554  A
C256        O260   1.263       .  A
C256        C969   1.477       .  S
O258      Cd2161   2.470       .  S
O260      Cd2161   2.452       .  S
O261        C264   1.265       .  A
O261       Cd266   2.477       .  S
C262        O271   1.263       .  A
C262        O267   1.267       .  A
C262       C1409   1.489       .  S
O263        C269   1.265       .  A
O263       Cd266   2.489       .  S
C264        O272   1.264       .  A
C264        C978   1.489       .  S
C265        O270   1.268       .  A
C265        O268   1.264       .  A
C265        C949   1.483       .  S
Cd266       O273   2.469       .  S
Cd266       O272   2.486       .  S
Cd266       O271   2.452       .  S
Cd266       O267   2.491       .  S
Cd266       O270   2.487       .  S
Cd266       O268   2.441       .  S
C269        O273   1.264       .  A
C269        C929   1.484       .  S
O274        C277   1.264       .  A
O274       Cd279   2.462       .  S
C275        O284   1.266       .  A
C275        O280   1.267       .  A
C275        C869   1.482       .  S
O276        C282   1.265       .  A
O276       Cd279   2.476       .  S
C277        O285   1.264       .  A
C277        C909   1.479       .  S
C278        O283   1.265       .  A
C278        O281   1.265       .  A
C278        C938   1.478       .  S
Cd279       O286   2.443       .  S
Cd279       O285   2.476       .  S
Cd279       O284   2.458       .  S
Cd279       O280   2.464       .  S
Cd279       O283   2.472       .  S
Cd279       O281   2.466       .  S
C282        O286   1.263       .  A
C282        C898   1.475       .  S
O287        C290   1.265       .  A
O287       Cd292   2.455       .  S
C288        O297   1.264       .  A
C288       O2201   1.265       .  A
C288       C1678   1.478       .  S
O289        C295   1.267       .  A
O289      Cd2200   2.478       .  S
C290        O298   1.265       .  A
C290       C1249   1.480       .  S
C291        O296   1.264   1_554  A
C291        O294   1.265       .  A
C291        C858   1.485       .  S
Cd292       O298   2.478       .  S
Cd292       O293   2.471       .  S
Cd292       O296   2.474   1_554  S
Cd292       O294   2.479       .  S
Cd292      O2197   2.478   1_554  S
Cd292      O2207   2.431   1_554  S
Cd292      O2205   2.465   1_554  S
O293       C2196   1.265   1_554  A
C295        O299   1.263       .  A
C295       C1278   1.475       .  S
O297      Cd2200   2.465       .  S
O299      Cd2200   2.431       .  S
O300        C303   1.266       .  A
O300       Cd305   2.453       .  S
C301        O310   1.264       .  A
C301        O306   1.264       .  A
C301       C2797   1.479   1_554  S
O302        C308   1.268       .  A
O302       Cd305   2.485       .  S
C303        O311   1.266       .  A
C303        C829   1.477       .  S
C304        O309   1.269       .  A
C304        O307   1.262       .  A
C304        C878   1.482       .  S
Cd305       O312   2.460       .  S
Cd305       O311   2.461       .  S
Cd305       O310   2.458       .  S
Cd305       O306   2.444       .  S
Cd305       O309   2.489       .  S
Cd305       O307   2.431       .  S
C308        O312   1.265       .  A
C308        C849   1.486       .  S
O313        C316   1.263       .  A
O313       Cd318   2.462       .  S
C314        O323   1.265       .  A
C314        O319   1.264       .  A
C314       C2677   1.479       .  S
O315        C321   1.267       .  A
O315       Cd318   2.482       .  S
C316        O324   1.265       .  A
C316        C918   1.480       .  S
C317        O322   1.266       .  A
C317        O320   1.264       .  A
C317        C818   1.480       .  S
Cd318       O325   2.444       .  S
Cd318       O324   2.481       .  S
Cd318       O323   2.466       .  S
Cd318       O319   2.453       .  S
Cd318       O322   2.478       .  S
Cd318       O320   2.458       .  S
C321        O325   1.264       .  A
C321        C798   1.480       .  S
O326       C2237   1.266       .  A
O326       Cd331   2.450       .  S
C327        O336   1.264       .  A
C327        O332   1.265       .  A
C327        C729   1.482       .  S
O328        C334   1.268       .  A
O328      Cd2239   2.491   1_554  S
C329        O337   1.266       .  A
C329       O2234   1.266   1_554  A
C329       C1458   1.487       .  S
C330        O335   1.267       .  A
C330        O333   1.265       .  A
C330        C809   1.480       .  S
Cd331       O336   2.467       .  S
Cd331       O332   2.472       .  S
Cd331       O335   2.480       .  S
Cd331       O333   2.453       .  S
Cd331      O2236   2.491       .  S
Cd331      O2246   2.431       .  S
Cd331      O2245   2.472       .  S
C334        O338   1.262       .  A
C334        C758   1.484       .  S
O337      Cd2239   2.472   1_554  S
O338      Cd2239   2.431   1_554  S
O339        C342   1.265       .  A
O339       Cd344   2.470       .  S
C340        O349   1.266       .  A
C340        O345   1.267       .  A
C340       C1698   1.476       .  S
O341        C347   1.269       .  A
O341       Cd344   2.498       .  S
C342        O350   1.264       .  A
C342        C698   1.485       .  S
C343        O348   1.266       .  A
C343        O346   1.264       .  A
C343        C709   1.484       .  S
Cd344       O351   2.431       .  S
Cd344       O350   2.475       .  S
Cd344       O349   2.465       .  S
Cd344       O345   2.452       .  S
Cd344       O348   2.485       .  S
Cd344       O346   2.472       .  S
C347        O351   1.262       .  A
C347        C669   1.477       .  S
O352        C355   1.266       .  A
O352       Cd357   2.480       .  S
C353        O362   1.263       .  A
C353        O358   1.266       .  A
C353        C838   1.476       .  S
O354        C360   1.269       .  A
O354       Cd357   2.480       .  S
C355        O363   1.264       .  A
C355        C789   1.491       .  S
C356        O361   1.266       .  A
C356        O359   1.263       .  A
C356        C718   1.480       .  S
Cd357       O364   2.435       .  S
Cd357       O363   2.465       .  S
Cd357       O362   2.467       .  S
Cd357       O358   2.471       .  S
Cd357       O361   2.489       .  S
Cd357       O359   2.463       .  S
C360        O364   1.265       .  A
C360        C778   1.480       .  S
O365        C368   1.267       .  A
O365       Cd370   2.454       .  S
C366        O375   1.266       .  A
C366        O371   1.265       .  A
C366       C1598   1.484       .  S
O367        C373   1.265       .  A
O367       Cd370   2.477       .  S
C368        O376   1.265       .  A
C368        C749   1.478       .  S
C369        O374   1.264       .  A
C369        O372   1.262       .  A
C369        C649   1.479       .  S
Cd370       O377   2.453       .  S
Cd370       O376   2.455       .  S
Cd370       O375   2.481       .  S
Cd370       O371   2.466       .  S
Cd370       O374   2.493       .  S
Cd370       O372   2.460       .  S
C373        O377   1.262       .  A
C373        C738   1.479       .  S
O378        C381   1.267       .  A
O378       Cd383   2.469       .  S
C379        O388   1.264       .  A
C379        O384   1.266       .  A
C379        C629   1.481       .  S
O380        C386   1.266       .  A
O380       Cd383   2.467       .  S
C381        O389   1.265       .  A
C381       C1178   1.483       .  S
C382        O387   1.267       .  A
C382        O385   1.262       .  A
C382        C609   1.481       .  S
Cd383       O390   2.460       .  S
Cd383       O389   2.458       .  S
Cd383       O388   2.467       .  S
Cd383       O384   2.463       .  S
Cd383       O387   2.491       .  S
Cd383       O385   2.430       .  S
C386        O390   1.266       .  A
C386        C658   1.476       .  S
O391        C394   1.265       .  A
O391       Cd396   2.462       .  S
C392        O401   1.265       .  A
C392       O2305   1.265       .  A
C392       C1889   1.484       .  S
O393        C399   1.268       .  A
O393       Cd396   2.475       .  S
C394        O402   1.264       .  A
C394        C549   1.477       .  S
C395        O400   1.267       .  A
C395        O398   1.263       .  A
C395        C569   1.479       .  S
Cd396       O403   2.455       .  S
Cd396       O402   2.471       .  S
Cd396       O397   2.450       .  S
Cd396      O2309   2.473       .  S
Cd396      O2308   2.489       .  S
Cd396      O2306   2.447       .  S
O397       C2300   1.265       .  A
O398      Cd2304   2.447       .  S
C399        O403   1.264       .  A
C399        C589   1.481       .  S
O400      Cd2304   2.489       .  S
O401      Cd2304   2.473       .  S
O404        C407   1.265       .  A
O404       Cd409   2.462       .  S
C405        O414   1.265       .  A
C405        O410   1.263       .  A
C405       C2526   1.477       .  S
O406        C412   1.267       .  A
O406       Cd409   2.482       .  S
C407        O415   1.266       .  A
C407       C1198   1.482       .  S
C408        O413   1.264       .  A
C408        O411   1.264       .  A
C408        C598   1.482       .  S
Cd409       O416   2.441       .  S
Cd409       O415   2.464       .  S
Cd409       O414   2.484       .  S
Cd409       O410   2.452       .  S
Cd409       O413   2.479       .  S
Cd409       O411   2.473       .  S
C412        O416   1.263       .  A
C412        C638   1.471       .  S
O417       C2328   1.266       .  A
O417       Cd422   2.491       .  S
C418        O427   1.264       .  A
C418        O423   1.265       .  A
C418        C678   1.476       .  S
O419        C425   1.263       .  A
O419      Cd2330   2.455   1_554  S
C420        O428   1.262       .  A
C420       O2325   1.266   1_554  A
C420       C1469   1.486       .  S
C421        O426   1.266       .  A
C421        O424   1.263       .  A
C421        C529   1.472       .  S
Cd422       O427   2.474       .  S
Cd422       O423   2.458       .  S
Cd422       O426   2.485       .  S
Cd422       O424   2.451       .  S
Cd422      O2327   2.455       .  S
Cd422      O2337   2.471       .  S
Cd422      O2336   2.455       .  S
C425        O429   1.265       .  A
C425        C689   1.477       .  S
O428      Cd2330   2.455   1_554  S
O429      Cd2330   2.471   1_554  S
O430        C433   1.265       .  A
O430       Cd435   2.458       .  S
C431        O440   1.262       .  A
C431        O436   1.266       .  A
C431       C1078   1.490       .  S
O432        C438   1.265       .  A
O432       Cd435   2.480       .  S
C433        O441   1.264       .  A
C433       C2406   1.483       .  S
C434        O439   1.268       .  A
C434        O437   1.265       .  A
C434        C518   1.468       .  S
Cd435       O442   2.457       .  S
Cd435       O441   2.465       .  S
Cd435       O440   2.441       .  S
Cd435       O436   2.484       .  S
Cd435       O439   2.471       .  S
Cd435       O437   2.431       .  S
C438        O442   1.263       .  A
C438        C538   1.480       .  S
O443        C446   1.264       .  A
O443       Cd448   2.445       .  S
C444        O453   1.266       .  A
C444        O449   1.265       .  A
C444       C1018   1.487       .  S
O445        C451   1.267       .  A
O445       Cd448   2.471       .  S
C446        O454   1.263       .  A
C446        C509   1.472       .  S
C447        O452   1.265       .  A
C447        O450   1.263       .  A
C447        C478   1.475       .  S
Cd448       O455   2.449       .  S
Cd448       O454   2.459       .  S
Cd448       O453   2.466       .  S
Cd448       O449   2.462       .  S
Cd448       O452   2.465       .  S
Cd448       O450   2.451       .  S
C451        O455   1.264       .  A
C451        C489   1.485       .  S
O456        C459   1.263       .  A
O456       Cd461   2.457       .  S
C457        O466   1.265       .  A
C457        O462   1.265       .  A
C457       C1318   1.475       .  S
O458        C464   1.266       .  A
O458       Cd461   2.487       .  S
C459        O467   1.265       .  A
C459        C578   1.483       .  S
C460        O465   1.265       .  A
C460        O463   1.264       .  A
C460        C469   1.478       .  S
Cd461       O468   2.445       .  S
Cd461       O467   2.488       .  S
Cd461       O466   2.463       .  S
Cd461       O462   2.449       .  S
Cd461       O465   2.471       .  S
Cd461       O463   2.454       .  S
C464        O468   1.264       .  A
C464        C558   1.478       .  S
C469        C470   1.413       .  A
C469        C474   1.413       .  A
C470        C471   1.405       .  A
C470       Br482   1.932       .  S
C471        C472   1.408       .  A
C471       Br486   1.932       .  S
C472        C475   1.483       .  S
C472        C473   1.409       .  A
C473        C474   1.408       .  A
C473       Br481   1.931       .  S
C474       Br485   1.931       .  S
C475        C476   1.409       .  A
C475        C480   1.410       .  A
C476        C477   1.407       .  A
C476       Br487   1.930       .  S
C477        C478   1.412       .  A
C477       Br483   1.932       .  S
C478        C479   1.410       .  A
C479        C480   1.406       .  A
C479       Br488   1.931       .  S
C480       Br484   1.931       .  S
C489        C490   1.416       .  A
C489        C494   1.417       .  A
C490        C491   1.408       .  A
C490       Br502   1.932       .  S
C491        C492   1.407       .  A
C491       Br506   1.930       .  S
C492        C495   1.482       .  S
C492        C493   1.405       .  A
C493        C494   1.406       .  A
C493       Br501   1.932       .  S
C494       Br505   1.930       .  S
C495        C496   1.407       .  A
C495        C500   1.407       .  A
C496        C497   1.409       .  A
C496       Br507   1.930       .  S
C497        C498   1.417       .  A
C497       Br503   1.931   1_554  S
C498       C2341   1.483   1_554  S
C498        C499   1.414       .  A
C499        C500   1.405       .  A
C499       Br508   1.933   1_554  S
C500       Br504   1.933       .  S
C509        C510   1.410       .  A
C509        C514   1.412       .  A
C510        C511   1.405       .  A
C510       Br522   1.932       .  S
C511        C512   1.408       .  A
C511       Br526   1.929       .  S
C512        C515   1.478       .  S
C512        C513   1.407       .  A
C513        C514   1.405       .  A
C513       Br521   1.930       .  S
C514       Br525   1.929       .  S
C515        C516   1.408       .  A
C515        C520   1.408       .  A
C516        C517   1.405       .  A
C516       Br527   1.931       .  S
C517        C518   1.409       .  A
C517       Br523   1.929       .  S
C518        C519   1.407       .  A
C519        C520   1.406       .  A
C519       Br528   1.928       .  S
C520       Br524   1.929       .  S
C529        C530   1.408       .  A
C529        C534   1.409       .  A
C530        C531   1.408       .  A
C530      Br2450   1.928       .  S
C531        C532   1.410       .  A
C531      Br2454   1.929       .  S
C532        C535   1.483       .  S
C532        C533   1.408       .  A
C533        C534   1.406       .  A
C533       Br541   1.930       .  S
C534       Br545   1.930       .  S
C535        C536   1.407       .  A
C535        C540   1.408       .  A
C536        C537   1.408       .  A
C536       Br547   1.930       .  S
C537        C538   1.414       .  A
C537       Br543   1.931       .  S
C538        C539   1.413       .  A
C539        C540   1.407       .  A
C539       Br548   1.932       .  S
C540       Br544   1.931       .  S
Br542      C2438   1.928       .  S
Br546      C2439   1.929   1_554  S
C549        C550   1.410       .  A
C549        C554   1.412       .  A
C550        C551   1.406       .  A
C550       Br562   1.929       .  S
C551        C552   1.408       .  A
C551       Br566   1.930       .  S
C552        C555   1.483       .  S
C552        C553   1.408       .  A
C553        C554   1.408       .  A
C553       Br561   1.929       .  S
C554       Br565   1.931       .  S
C555        C556   1.409       .  A
C555        C560   1.408       .  A
C556        C557   1.410       .  A
C556       Br567   1.928       .  S
C557        C558   1.412       .  A
C557       Br563   1.929       .  S
C558        C559   1.411       .  A
C559        C560   1.405       .  A
C559       Br568   1.932       .  S
C560       Br564   1.932       .  S
C569        C570   1.412       .  A
C569        C574   1.412       .  A
C570        C571   1.409       .  A
C570       Br582   1.931       .  S
C571        C572   1.409       .  A
C571       Br586   1.928       .  S
C572        C575   1.485       .  S
C572        C573   1.409       .  A
C573        C574   1.407       .  A
C573       Br581   1.932       .  S
C574       Br585   1.930       .  S
C575        C576   1.408       .  A
C575        C580   1.408       .  A
C576        C577   1.410       .  A
C576       Br587   1.929       .  S
C577        C578   1.415       .  A
C577       Br583   1.931       .  S
C578        C579   1.414       .  A
C579        C580   1.407       .  A
C579       Br588   1.932       .  S
C580       Br584   1.931       .  S
C589        C590   1.414       .  A
C589        C594   1.412       .  A
C590        C591   1.407       .  A
C590       Br602   1.929       .  S
C591        C592   1.408       .  A
C591       Br606   1.931       .  S
C592        C595   1.485       .  S
C592        C593   1.409       .  A
C593        C594   1.408       .  A
C593      Br2509   1.929       .  S
C594      Br2513   1.931       .  S
C595        C596   1.409       .  A
C595        C600   1.408       .  A
C596        C597   1.409       .  A
C596       Br607   1.930       .  S
C597        C598   1.413       .  A
C597       Br603   1.930       .  S
C598        C599   1.413       .  A
C599        C600   1.408       .  A
C599       Br608   1.930       .  S
C600       Br604   1.931       .  S
Br601      C2501   1.929   1_554  S
Br605      C2502   1.931       .  S
C609        C610   1.414       .  A
C609        C614   1.416       .  A
C610        C611   1.408       .  A
C610       Br622   1.931       .  S
C611        C612   1.408       .  A
C611       Br626   1.930       .  S
C612        C615   1.481       .  S
C612        C613   1.406       .  A
C613        C614   1.405       .  A
C613       Br621   1.931       .  S
C614       Br625   1.933       .  S
C615        C616   1.408       .  A
C615        C620   1.408       .  A
C616        C617   1.408       .  A
C616       Br627   1.929       .  S
C617        C618   1.412       .  A
C617       Br623   1.929       .  S
C618       C2313   1.477   1_554  S
C618        C619   1.412       .  A
C619        C620   1.405       .  A
C619      Br2536   1.932   1_554  S
C620       Br624   1.932       .  S
Br628      C2527   1.932       .  S
C629        C630   1.413       .  A
C629        C634   1.415       .  A
C630        C631   1.407       .  A
C630       Br642   1.931       .  S
C631        C632   1.408       .  A
C631       Br646   1.930       .  S
C632        C635   1.483       .  S
C632        C633   1.407       .  A
C633        C634   1.408       .  A
C633       Br641   1.931       .  S
C634       Br645   1.931       .  S
C635        C636   1.409       .  A
C635        C640   1.409       .  A
C636        C637   1.405       .  A
C636       Br647   1.931       .  S
C637        C638   1.409       .  A
C637       Br643   1.932       .  S
C638        C639   1.409       .  A
C639        C640   1.408       .  A
C639       Br648   1.929       .  S
C640       Br644   1.928       .  S
C649        C650   1.412       .  A
C649        C654   1.411       .  A
C650        C651   1.410       .  A
C650       Br662   1.930       .  S
C651        C652   1.410       .  A
C651       Br666   1.930       .  S
C652        C655   1.486       .  S
C652        C653   1.409       .  A
C653        C654   1.406       .  A
C653       Br661   1.930       .  S
C654       Br665   1.931       .  S
C655        C656   1.410       .  A
C655        C660   1.410       .  A
C656        C657   1.407       .  A
C656       Br667   1.930       .  S
C657        C658   1.410       .  A
C657       Br663   1.931       .  S
C658        C659   1.410       .  A
C659        C660   1.408       .  A
C659       Br668   1.930       .  S
C660       Br664   1.930       .  S
C669        C670   1.412       .  A
C669        C674   1.411       .  A
C670        C671   1.405       .  A
C670       Br682   1.932       .  S
C671        C672   1.408       .  A
C671       Br686   1.931       .  S
C672        C675   1.483       .  S
C672        C673   1.409       .  A
C673        C674   1.410       .  A
C673       Br681   1.929       .  S
C674       Br685   1.929       .  S
C675        C676   1.408       .  A
C675        C680   1.409       .  A
C676        C677   1.406       .  A
C676       Br687   1.930       .  S
C677        C678   1.411       .  A
C677       Br683   1.930       .  S
C678        C679   1.411       .  A
C679        C680   1.408       .  A
C679       Br688   1.930       .  S
C680       Br684   1.929       .  S
C689        C690   1.413       .  A
C689        C694   1.412       .  A
C690        C691   1.405       .  A
C690       Br702   1.931       .  S
C691        C692   1.407       .  A
C691       Br706   1.932       .  S
C692        C695   1.482       .  S
C692        C693   1.408       .  A
C693        C694   1.408       .  A
C693       Br701   1.929       .  S
C694       Br705   1.930       .  S
C695        C696   1.406       .  A
C695        C700   1.407       .  A
C696        C697   1.409       .  A
C696       Br707   1.931       .  S
C697        C698   1.417       .  A
C697       Br703   1.930       .  S
C698        C699   1.416       .  A
C699        C700   1.406       .  A
C699       Br708   1.932       .  S
C700       Br704   1.933       .  S
C709        C710   1.412       .  A
C709        C714   1.414       .  A
C710        C711   1.409       .  A
C710       Br722   1.930       .  S
C711        C712   1.409       .  A
C711       Br726   1.929       .  S
C712        C715   1.487       .  S
C712        C713   1.407       .  A
C713        C714   1.409       .  A
C713       Br721   1.931       .  S
C714       Br725   1.927       .  S
C715        C716   1.408       .  A
C715        C720   1.409       .  A
C716        C717   1.408       .  A
C716       Br727   1.930       .  S
C717        C718   1.413       .  A
C717       Br723   1.931       .  S
C718        C719   1.411       .  A
C719        C720   1.409       .  A
C719       Br728   1.930       .  S
C720       Br724   1.929       .  S
C729        C730   1.413       .  A
C729        C734   1.414       .  A
C730        C731   1.407       .  A
C730       Br742   1.932       .  S
C731        C732   1.409       .  A
C731       Br746   1.932       .  S
C732        C735   1.486       .  S
C732        C733   1.408       .  A
C733        C734   1.409       .  A
C733       Br741   1.930       .  S
C734       Br745   1.931       .  S
C735        C736   1.408       .  A
C735        C740   1.410       .  A
C736        C737   1.406       .  A
C736       Br747   1.931       .  S
C737        C738   1.415       .  A
C737       Br743   1.934       .  S
C738        C739   1.411       .  A
C739        C740   1.409       .  A
C739       Br748   1.931       .  S
C740       Br744   1.929       .  S
C749        C750   1.413       .  A
C749        C754   1.413       .  A
C750        C751   1.408       .  A
C750       Br762   1.930       .  S
C751        C752   1.408       .  A
C751       Br766   1.929       .  S
C752        C755   1.482       .  S
C752        C753   1.408       .  A
C753        C754   1.406       .  A
C753       Br761   1.931       .  S
C754       Br765   1.933       .  S
C755        C756   1.406       .  A
C755        C760   1.408       .  A
C756        C757   1.406       .  A
C756       Br767   1.933       .  S
C757        C758   1.417       .  A
C757       Br763   1.933       .  S
C758        C759   1.415       .  A
C759        C760   1.409       .  A
C759       Br768   1.931       .  S
C760       Br764   1.930       .  S
C769       C2222   1.479       .  S
C769        C770   1.414   1_556  A
C769        C774   1.413   1_556  A
C770        C771   1.409       .  A
C770       Br782   1.931   1_554  S
C771        C772   1.408       .  A
C771       Br786   1.929       .  S
C772        C775   1.483       .  S
C772        C773   1.408       .  A
C773        C774   1.405       .  A
C773       Br781   1.933       .  S
C774      Br2693   1.933   1_554  S
C775        C776   1.409       .  A
C775        C780   1.408       .  A
C776        C777   1.406       .  A
C776       Br787   1.932       .  S
C777        C778   1.413       .  A
C777       Br783   1.930       .  S
C778        C779   1.414       .  A
C779        C780   1.408       .  A
C779       Br788   1.931       .  S
C780       Br784   1.930       .  S
Br785      C2682   1.933       .  S
C789        C790   1.418       .  A
C789        C794   1.419       .  A
C790        C791   1.408       .  A
C790       Br802   1.932       .  S
C791        C792   1.408       .  A
C791       Br806   1.934       .  S
C792        C795   1.486       .  S
C792        C793   1.406       .  A
C793        C794   1.410       .  A
C793       Br801   1.930       .  S
C794       Br805   1.932       .  S
C795        C796   1.409       .  A
C795        C800   1.408       .  A
C796        C797   1.408       .  A
C796       Br807   1.930       .  S
C797        C798   1.413       .  A
C797       Br803   1.931       .  S
C798        C799   1.414       .  A
C799        C800   1.408       .  A
C799       Br808   1.932       .  S
C800       Br804   1.929       .  S
C809        C810   1.413       .  A
C809        C814   1.412       .  A
C810        C811   1.408       .  A
C810       Br822   1.929       .  S
C811        C812   1.408       .  A
C811       Br826   1.930       .  S
C812        C815   1.483       .  S
C812        C813   1.408       .  A
C813        C814   1.407       .  A
C813       Br821   1.931       .  S
C814       Br825   1.931       .  S
C815        C816   1.408       .  A
C815        C820   1.407       .  A
C816        C817   1.408       .  A
C816       Br827   1.930       .  S
C817        C818   1.413       .  A
C817       Br823   1.930       .  S
C818        C819   1.414       .  A
C819        C820   1.407       .  A
C819      Br2736   1.932       .  S
C820      Br2732   1.931       .  S
Br824      C2728   1.931   1_554  S
Br828      C2727   1.932       .  S
C829        C830   1.412       .  A
C829        C834   1.413       .  A
C830        C831   1.408       .  A
C830       Br842   1.930       .  S
C831        C832   1.408       .  A
C831       Br846   1.929   1_655  S
C832        C835   1.484   1_655  S
C832        C833   1.409       .  A
C833        C834   1.406       .  A
C833       Br841   1.933       .  S
C834       Br845   1.933       .  S
C835        C836   1.409       .  A
C835        C840   1.409       .  A
C836        C837   1.407       .  A
C836       Br847   1.929       .  S
C837        C838   1.410       .  A
C837       Br843   1.928       .  S
C838        C839   1.412       .  A
C839        C840   1.407       .  A
C839       Br848   1.932       .  S
C840       Br844   1.931       .  S
C849        C850   1.416       .  A
C849        C854   1.413       .  A
C850        C851   1.410       .  A
C850      Br2770   1.933   1_554  S
C851        C852   1.409       .  A
C851      Br2774   1.931   1_554  S
C852        C855   1.488       .  S
C852        C853   1.409       .  A
C853        C854   1.409       .  A
C853       Br861   1.931       .  S
C854       Br865   1.930       .  S
C855        C856   1.409       .  A
C855        C860   1.409       .  A
C856        C857   1.409       .  A
C856       Br867   1.931       .  S
C857        C858   1.415       .  A
C857       Br863   1.932       .  S
C858        C859   1.414       .  A
C859        C860   1.409       .  A
C859       Br868   1.931       .  S
C860       Br864   1.931       .  S
Br862      C2758   1.933       .  S
Br866      C2759   1.931       .  S
C869        C870   1.414       .  A
C869        C874   1.414       .  A
C870        C871   1.407       .  A
C870       Br882   1.932       .  S
C871        C872   1.408       .  A
C871       Br886   1.932       .  S
C872        C875   1.484       .  S
C872        C873   1.407       .  A
C873        C874   1.408       .  A
C873       Br881   1.930       .  S
C874       Br885   1.931       .  S
C875        C876   1.407       .  A
C875        C880   1.408       .  A
C876        C877   1.407       .  A
C876       Br887   1.931       .  S
C877        C878   1.416       .  A
C877       Br883   1.932       .  S
C878        C879   1.413       .  A
C879        C880   1.408       .  A
C879       Br888   1.931       .  S
C880       Br884   1.930       .  S
C889       C2209   1.479       .  S
C889        C890   1.416       .  A
C889        C894   1.414       .  A
C890        C891   1.406       .  A
C890      Br2810   1.932       .  S
C891        C892   1.406       .  A
C891       Br906   1.931       .  S
C892        C895   1.480       .  S
C892        C893   1.407       .  A
C893        C894   1.406       .  A
C893       Br901   1.930       .  S
C894       Br905   1.933       .  S
C895        C896   1.408       .  A
C895        C900   1.408       .  A
C896        C897   1.407       .  A
C896       Br907   1.929       .  S
C897        C898   1.411       .  A
C897       Br903   1.930       .  S
C898        C899   1.412       .  A
C899        C900   1.405       .  A
C899       Br908   1.932       .  S
C900       Br904   1.932       .  S
Br902      C2798   1.932       .  S
C909        C910   1.413       .  A
C909        C914   1.412       .  A
C910        C911   1.406       .  A
C910       Br922   1.933       .  S
C911        C912   1.408       .  A
C911       Br926   1.932       .  S
C912        C915   1.483   1_655  S
C912        C913   1.408       .  A
C913        C914   1.409       .  A
C913       Br921   1.929       .  S
C914       Br925   1.929       .  S
C915        C916   1.408       .  A
C915        C920   1.408       .  A
C916        C917   1.408       .  A
C916       Br927   1.929   1_455  S
C917        C918   1.413       .  A
C917       Br923   1.930       .  S
C918        C919   1.413       .  A
C919        C920   1.406       .  A
C919       Br928   1.931       .  S
C920       Br924   1.932       .  S
C929        C930   1.414       .  A
C929        C934   1.414       .  A
C930        C931   1.409       .  A
C930       Br942   1.930       .  S
C931        C932   1.408       .  A
C931       Br946   1.931       .  S
C932        C935   1.485       .  S
C932        C933   1.407       .  A
C933        C934   1.408       .  A
C933       Br941   1.931       .  S
C934       Br945   1.931       .  S
C935        C936   1.409       .  A
C935        C940   1.408       .  A
C936        C937   1.407       .  A
C936       Br947   1.930       .  S
C937        C938   1.411       .  A
C937       Br943   1.930       .  S
C938        C939   1.412       .  A
C939        C940   1.408       .  A
C939       Br948   1.931       .  S
C940       Br944   1.929       .  S
C949        C950   1.414       .  A
C949        C954   1.414       .  A
C950        C951   1.409       .  A
C950       Br962   1.932       .  S
C951        C952   1.410       .  A
C951       Br966   1.932       .  S
C952        C955   1.487       .  S
C952        C953   1.408       .  A
C953        C954   1.407       .  A
C953       Br961   1.931       .  S
C954       Br965   1.930       .  S
C955        C956   1.409       .  A
C955        C960   1.409       .  A
C956        C957   1.406       .  A
C956       Br967   1.931       .  S
C957        C958   1.414       .  A
C957       Br963   1.933       .  S
C958        C959   1.414       .  A
C959        C960   1.409       .  A
C959       Br968   1.931       .  S
C960       Br964   1.930       .  S
C969        C970   1.411       .  A
C969        C974   1.412       .  A
C970        C971   1.408       .  A
C970       Br982   1.930       .  S
C971        C972   1.408       .  A
C971       Br986   1.928       .  S
C972        C975   1.485       .  S
C972        C973   1.409       .  A
C973        C974   1.408       .  A
C973       Br981   1.931       .  S
C974       Br985   1.932       .  S
C975        C976   1.407       .  A
C975        C980   1.406       .  A
C976        C977   1.408       .  A
C976       Br987   1.932       .  S
C977        C978   1.416       .  A
C977       Br983   1.931       .  S
C978        C979   1.418       .  A
C979        C980   1.409       .  A
C979       Br988   1.929       .  S
C980       Br984   1.931       .  S
C989        C990   1.413       .  A
C989        C994   1.413       .  A
C990        C991   1.408       .  A
C990      Br2910   1.931       .  S
C991        C992   1.408       .  A
C991      Br1006   1.929       .  S
C992        C995   1.483       .  S
C992        C993   1.408       .  A
C993        C994   1.406       .  A
C993      Br1001   1.931       .  S
C994      Br1005   1.931       .  S
C995        C996   1.407       .  A
C995       C1000   1.408       .  A
C996        C997   1.407       .  A
C996      Br2915   1.931   1_554  S
C997        C998   1.414       .  A
C997      Br1003   1.931       .  S
C998        C999   1.414       .  A
C999       C1000   1.409       .  A
C999      Br1008   1.931       .  S
C1000     Br1004   1.930       .  S
Br1002     C2898   1.931       .  S
Br1007     C2904   1.931       .  S
C1009      C1010   1.415       .  A
C1009      C1014   1.416       .  A
C1010      C1011   1.409       .  A
C1010     Br1022   1.931       .  S
C1011      C1012   1.407       .  A
C1011     Br1026   1.929       .  S
C1012      C1015   1.486       .  S
C1012      C1013   1.408       .  A
C1013      C1014   1.408       .  A
C1013     Br1021   1.932       .  S
C1014     Br1025   1.933       .  S
C1015      C1016   1.407       .  A
C1015      C1020   1.408       .  A
C1016      C1017   1.407       .  A
C1016     Br1027   1.933       .  S
C1017      C1018   1.417       .  A
C1017     Br1023   1.933       .  S
C1018      C1019   1.416       .  A
C1019      C1020   1.410       .  A
C1019     Br1028   1.932       .  S
C1020     Br1024   1.928       .  S
C1029      C1030   1.413       .  A
C1029      C1034   1.412       .  A
C1030      C1031   1.407       .  A
C1030     Br1042   1.930       .  S
C1031      C1032   1.407       .  A
C1031     Br1046   1.929       .  S
C1032      C1035   1.479       .  S
C1032      C1033   1.407       .  A
C1033      C1034   1.405       .  A
C1033     Br1041   1.932       .  S
C1034     Br1045   1.930       .  S
C1035      C1036   1.407       .  A
C1035      C1040   1.406       .  A
C1036      C1037   1.408       .  A
C1036     Br1047   1.931       .  S
C1037      C1038   1.414       .  A
C1037     Br1043   1.931       .  S
C1038      C1039   1.413       .  A
C1039      C1040   1.404       .  A
C1039     Br1048   1.933       .  S
C1040     Br1044   1.931       .  S
C1049      C2146   1.480       .  S
C1049      C1050   1.413       .  A
C1049      C1054   1.414       .  A
C1050      C1051   1.406       .  A
C1050     Br1062   1.932       .  S
C1051      C1052   1.408       .  A
C1051     Br1066   1.932       .  S
C1052      C1055   1.483       .  S
C1052      C1053   1.409       .  A
C1053      C1054   1.409       .  A
C1053     Br1061   1.931       .  S
C1054     Br2973   1.930       .  S
C1055      C1056   1.409       .  A
C1055      C1060   1.407       .  A
C1056      C1057   1.409       .  A
C1056     Br1067   1.930       .  S
C1057      C1058   1.415       .  A
C1057     Br1063   1.931       .  S
C1058      C1059   1.416       .  A
C1059      C1060   1.405       .  A
C1059     Br1068   1.935       .  S
C1060     Br1064   1.932       .  S
Br1065     C2962   1.930       .  S
C1069      C1070   1.415       .  A
C1069      C1074   1.419       .  A
C1070      C1071   1.409       .  A
C1070     Br1082   1.930       .  S
C1071      C1072   1.407       .  A
C1071     Br1086   1.930       .  S
C1072      C1075   1.484       .  S
C1072      C1073   1.406       .  A
C1073      C1074   1.407       .  A
C1073     Br1081   1.933       .  S
C1074     Br1085   1.932       .  S
C1075      C1076   1.405       .  A
C1075      C1080   1.407       .  A
C1076      C1077   1.408       .  A
C1076     Br1087   1.931       .  S
C1077      C1078   1.420       .  A
C1077     Br1083   1.934       .  S
C1078      C1079   1.419       .  A
C1079      C1080   1.408       .  A
C1079     Br1088   1.933       .  S
C1080     Br1084   1.933       .  S
C1089      C1090   1.411       .  A
C1089      C1094   1.412       .  A
C1090      C1091   1.410       .  A
C1090     Br1102   1.930       .  S
C1091      C1092   1.410       .  A
C1091     Br1106   1.929       .  S
C1092      C1095   1.484       .  S
C1092      C1093   1.407       .  A
C1093      C1094   1.405       .  A
C1093     Br1101   1.930       .  S
C1094     Br1105   1.932       .  S
C1095      C1096   1.408       .  A
C1095      C1100   1.408       .  A
C1096      C1097   1.409       .  A
C1096     Br1107   1.931       .  S
C1097      C1098   1.415       .  A
C1097     Br1103   1.931       .  S
C1098      C1099   1.413       .  A
C1099      C1100   1.408       .  A
C1099     Br1108   1.930       .  S
C1100     Br1104   1.930       .  S
C1109      C1110   1.418       .  A
C1109      C1114   1.416       .  A
C1110      C1111   1.406       .  A
C1110     Br1122   1.932       .  S
C1111      C1112   1.405       .  A
C1111     Br1126   1.933       .  S
C1112      C1115   1.483       .  S
C1112      C1113   1.407       .  A
C1113      C1114   1.410       .  A
C1113     Br1121   1.931       .  S
C1114     Br1125   1.931       .  S
C1115      C1116   1.408       .  A
C1115      C1120   1.409       .  A
C1116      C1117   1.407       .  A
C1116     Br1127   1.929       .  S
C1117      C1118   1.412       .  A
C1117     Br1123   1.931       .  S
C1118      C1119   1.413       .  A
C1119      C1120   1.407       .  A
C1119     Br1128   1.932       .  S
C1120     Br1124   1.932       .  S
C1129      C1130   1.413       .  A
C1129      C1134   1.412       .  A
C1130      C1131   1.408       .  A
C1130     Br1142   1.930       .  S
C1131      C1132   1.408       .  A
C1131     Br1146   1.929       .  S
C1132      C1135   1.483       .  S
C1132      C1133   1.408       .  A
C1133      C1134   1.406       .  A
C1133     Br1141   1.930       .  S
C1134     Br1145   1.932       .  S
C1135      C1136   1.409       .  A
C1135      C1140   1.409       .  A
C1136      C1137   1.406       .  A
C1136     Br1147   1.931       .  S
C1137      C1138   1.410       .  A
C1137     Br1143   1.930       .  S
C1138      C1139   1.411       .  A
C1139      C1140   1.409       .  A
C1139     Br1148   1.929       .  S
C1140     Br1144   1.929       .  S
C1149      C1150   1.415       .  A
C1149      C1154   1.414   1_554  A
C1150      C1151   1.409       .  A
C1150     Br1162   1.931       .  S
C1151      C1152   1.408       .  A
C1151     Br1166   1.932       .  S
C1152      C1155   1.487       .  S
C1152      C1153   1.409   1_554  A
C1153      C1154   1.410       .  A
C1153     Br1161   1.931       .  S
C1154     Br3073   1.930       .  S
C1155      C1156   1.409       .  A
C1155      C1160   1.409       .  A
C1156      C1157   1.408       .  A
C1156     Br3075   1.930       .  S
C1157      C1158   1.413       .  A
C1157     Br1163   1.931       .  S
C1158      C1159   1.414       .  A
C1159      C1160   1.408       .  A
C1159     Br1168   1.930       .  S
C1160     Br1164   1.931       .  S
Br1165     C3062   1.930       .  S
Br1167     C3064   1.930       .  S
C1169      C1170   1.412       .  A
C1169      C1174   1.412       .  A
C1170      C1171   1.409       .  A
C1170     Br1182   1.928       .  S
C1171      C1172   1.408       .  A
C1171     Br1186   1.929       .  S
C1172      C1175   1.485   1_545  S
C1172      C1173   1.409       .  A
C1173      C1174   1.407       .  A
C1173     Br1181   1.931       .  S
C1174     Br1185   1.932       .  S
C1175      C1176   1.408       .  A
C1175      C1180   1.407       .  A
C1176      C1177   1.409       .  A
C1176     Br1187   1.929   1_565  S
C1177      C1178   1.413       .  A
C1177     Br1183   1.930       .  S
C1178      C1179   1.416       .  A
C1179      C1180   1.407       .  A
C1179     Br1188   1.933       .  S
C1180     Br1184   1.931       .  S
C1189      C1190   1.418       .  A
C1189      C1194   1.417       .  A
C1190      C1191   1.410       .  A
C1190     Br1202   1.933       .  S
C1191      C1192   1.407       .  A
C1191     Br1206   1.930       .  S
C1192      C1195   1.485   1_545  S
C1192      C1193   1.407       .  A
C1193      C1194   1.408       .  A
C1193     Br1201   1.932   1_545  S
C1194     Br1205   1.932       .  S
C1195      C1196   1.408       .  A
C1195      C1200   1.408       .  A
C1196      C1197   1.409       .  A
C1196     Br1207   1.928       .  S
C1197      C1198   1.413       .  A
C1197     Br1203   1.930       .  S
C1198      C1199   1.415       .  A
C1199      C1200   1.407       .  A
C1199     Br1208   1.933       .  S
C1200     Br1204   1.933   1_565  S
C1209      C1210   1.411       .  A
C1209      C1214   1.411       .  A
C1210      C1211   1.403       .  A
C1210     Br1222   1.932       .  S
C1211      C1212   1.407       .  A
C1211     Br1226   1.932       .  S
C1212      C1215   1.481       .  S
C1212      C1213   1.409       .  A
C1213      C1214   1.410       .  A
C1213     Br1221   1.928       .  S
C1214     Br1225   1.929       .  S
C1215      C1216   1.409       .  A
C1215      C1220   1.407       .  A
C1216      C1217   1.406       .  A
C1216     Br1227   1.930       .  S
C1217      C1218   1.410       .  A
C1217     Br1223   1.930       .  S
C1218      C2094   1.476       .  S
C1218      C3127   1.413       .  A
C1219      C3126   1.413       .  A
C1219      C3128   1.407   1_554  A
C1219     Br1228   1.929       .  S
C1220      C3127   1.407       .  A
C1220     Br1224   1.930       .  S
C1229      C1230   1.415       .  A
C1229      C1234   1.413       .  A
C1230      C1231   1.409       .  A
C1230     Br1242   1.931       .  S
C1231      C1232   1.407       .  A
C1231     Br1246   1.930       .  S
C1232      C1235   1.484       .  S
C1232      C1233   1.409       .  A
C1233      C1234   1.408       .  A
C1233     Br1241   1.931       .  S
C1234     Br1245   1.931       .  S
C1235      C1236   1.409       .  A
C1235      C1240   1.409       .  A
C1236      C1237   1.406       .  A
C1236     Br1247   1.931       .  S
C1237      C1238   1.410       .  A
C1237     Br1243   1.931       .  S
C1238      C1239   1.410       .  A
C1239      C1240   1.408       .  A
C1239     Br1248   1.930       .  S
C1240     Br1244   1.928       .  S
C1249      C1250   1.411       .  A
C1249      C1254   1.415       .  A
C1250      C1251   1.406       .  A
C1250     Br1262   1.930       .  S
C1251      C1252   1.408       .  A
C1251     Br1266   1.930       .  S
C1252      C1255   1.485       .  S
C1252      C1253   1.409       .  A
C1253      C1254   1.410       .  A
C1253     Br1261   1.929       .  S
C1254     Br1265   1.932       .  S
C1255      C1256   1.409       .  A
C1255      C1260   1.409       .  A
C1256      C1257   1.406       .  A
C1256     Br1267   1.931       .  S
C1257      C1258   1.412       .  A
C1257     Br1263   1.933       .  S
C1258      C1259   1.412       .  A
C1259      C1260   1.410       .  A
C1259     Br1268   1.928       .  S
C1260     Br1264   1.929       .  S
C1269      C1270   1.410       .  A
C1269      C1274   1.410       .  A
C1270      C1271   1.405       .  A
C1270     Br1282   1.931       .  S
C1271      C1272   1.408       .  A
C1271     Br1286   1.930       .  S
C1272      C1275   1.480       .  S
C1272      C1273   1.408       .  A
C1273      C1274   1.407       .  A
C1273     Br1281   1.930       .  S
C1274     Br1285   1.931       .  S
C1275      C1276   1.408       .  A
C1275      C1280   1.407       .  A
C1276      C1277   1.408       .  A
C1276     Br1287   1.929       .  S
C1277      C1278   1.412       .  A
C1277     Br1283   1.929       .  S
C1278      C1279   1.413       .  A
C1279      C1280   1.404       .  A
C1279     Br1288   1.933       .  S
C1280     Br1284   1.931       .  S
C1289      C1290   1.414       .  A
C1289      C1294   1.413       .  A
C1290      C1291   1.408       .  A
C1290     Br1302   1.931       .  S
C1291      C1292   1.409       .  A
C1291     Br1306   1.931       .  S
C1292      C1295   1.486       .  S
C1292      C1293   1.409       .  A
C1293      C1294   1.408       .  A
C1293     Br1301   1.931       .  S
C1294     Br1305   1.930       .  S
C1295      C1296   1.409       .  A
C1295      C1300   1.410       .  A
C1296      C1297   1.406       .  A
C1296     Br1307   1.931       .  S
C1297      C1298   1.412       .  A
C1297     Br1303   1.932       .  S
C1298      C1299   1.413       .  A
C1299      C1300   1.409       .  A
C1299     Br1308   1.931       .  S
C1300     Br1304   1.929       .  S
C1309      C1310   1.413       .  A
C1309      C1314   1.415       .  A
C1310      C1311   1.406       .  A
C1310     Br1322   1.931       .  S
C1311      C1312   1.407       .  A
C1311     Br1326   1.930       .  S
C1312      C1315   1.481       .  S
C1312      C1313   1.407       .  A
C1313      C1314   1.407       .  A
C1313     Br1321   1.932       .  S
C1314     Br1325   1.931       .  S
C1315      C1316   1.408       .  A
C1315      C1320   1.408       .  A
C1316      C1317   1.409       .  A
C1316     Br1327   1.929       .  S
C1317      C1318   1.412       .  A
C1317     Br1323   1.929       .  S
C1318      C1319   1.412       .  A
C1319      C1320   1.404       .  A
C1319     Br1328   1.933       .  S
C1320     Br1324   1.933       .  S
C1329      C1330   1.411       .  A
C1329      C1334   1.411       .  A
C1330      C1331   1.406       .  A
C1330     Br1342   1.931       .  S
C1331      C1332   1.408       .  A
C1331     Br1346   1.930       .  S
C1332      C1335   1.481       .  S
C1332      C1333   1.408       .  A
C1333      C1334   1.407       .  A
C1333     Br1341   1.930       .  S
C1334     Br1345   1.930       .  S
C1335      C1336   1.409       .  A
C1335      C1340   1.409       .  A
C1336      C1337   1.406       .  A
C1336     Br1347   1.930       .  S
C1337      C1338   1.409       .  A
C1337     Br1343   1.928       .  S
C1338      C1339   1.408       .  A
C1339      C1340   1.406       .  A
C1339     Br1348   1.931       .  S
C1340     Br1344   1.929       .  S
C1349      C1350   1.415       .  A
C1349      C1354   1.413       .  A
C1350      C1351   1.407       .  A
C1350     Br1362   1.932       .  S
C1351      C1352   1.407       .  A
C1351     Br3274   1.930       .  S
C1352      C1355   1.483       .  S
C1352      C1353   1.408       .  A
C1353      C1354   1.408       .  A
C1353     Br1361   1.929       .  S
C1354     Br1365   1.932       .  S
C1355      C1356   1.408       .  A
C1355      C1360   1.408       .  A
C1356      C1357   1.405       .  A
C1356     Br1367   1.932       .  S
C1357      C1358   1.412       .  A
C1357     Br1363   1.933       .  S
C1358      C1359   1.413       .  A
C1359      C1360   1.409       .  A
C1359     Br1368   1.930       .  S
C1360     Br1364   1.928       .  S
Br1366     C3259   1.930   1_554  S
C1369      C1370   1.412       .  A
C1369      C1374   1.413       .  A
C1370      C3279   1.410       .  A
C1370     Br1382   1.930       .  S
C1371      C1372   1.408       .  A
C1371      C3278   1.410   1_554  A
C1371     Br1386   1.928       .  S
C1372      C1375   1.483       .  S
C1372      C1373   1.408       .  A
C1373      C3282   1.405   1_554  A
C1373     Br1381   1.932       .  S
C1374      C3281   1.405       .  A
C1374     Br1385   1.933       .  S
C1375      C1376   1.408       .  A
C1375      C1380   1.409       .  A
C1376      C1377   1.406       .  A
C1376     Br3295   1.930   1_554  S
C1377      C1378   1.410       .  A
C1377     Br1383   1.928       .  S
C1378      C1379   1.412       .  A
C1379      C1380   1.407       .  A
C1379     Br1388   1.932       .  S
C1380     Br1384   1.929       .  S
Br1387     C3284   1.930       .  S
C1389      C1390   1.411       .  A
C1389      C1394   1.411       .  A
C1390      C1391   1.405       .  A
C1390     Br1402   1.933       .  S
C1391      C1392   1.408       .  A
C1391     Br1406   1.932       .  S
C1392      C1395   1.482       .  S
C1392      C1393   1.408       .  A
C1393      C1394   1.409       .  A
C1393     Br1401   1.928       .  S
C1394     Br1405   1.929       .  S
C1395      C1396   1.408       .  A
C1395      C1400   1.408       .  A
C1396      C1397   1.407       .  A
C1396     Br1407   1.929       .  S
C1397      C1398   1.412       .  A
C1397     Br1403   1.930       .  S
C1398      C1399   1.413       .  A
C1399      C1400   1.406       .  A
C1399     Br1408   1.932       .  S
C1400     Br1404   1.931       .  S
C1409      C1410   1.417       .  A
C1409      C1414   1.417       .  A
C1410      C1411   1.410       .  A
C1410     Br1422   1.933       .  S
C1411      C1412   1.408       .  A
C1411     Br1426   1.930       .  S
C1412      C1415   1.488       .  S
C1412      C1413   1.408       .  A
C1413      C1414   1.409       .  A
C1413     Br1421   1.932       .  S
C1414     Br1425   1.932       .  S
C1415      C1416   1.408       .  A
C1415      C1420   1.410       .  A
C1416      C1417   1.409       .  A
C1416     Br1427   1.928       .  S
C1417      C1418   1.413       .  A
C1417     Br1423   1.930       .  S
C1418      C1419   1.415       .  A
C1419      C1420   1.409       .  A
C1419     Br1428   1.933       .  S
C1420     Br1424   1.932       .  S
C1429      C1430   1.413       .  A
C1429      C1434   1.415       .  A
C1430      C1431   1.408       .  A
C1430     Br1442   1.930       .  S
C1431      C1432   1.409       .  A
C1431     Br1446   1.931       .  S
C1432      C1435   1.488   1_455  S
C1432      C1433   1.409       .  A
C1433      C1434   1.411       .  A
C1433     Br1441   1.931       .  S
C1434     Br1445   1.931       .  S
C1435      C1436   1.408       .  A
C1435      C1440   1.411       .  A
C1436      C1437   1.406       .  A
C1436     Br1447   1.931       .  S
C1437      C1438   1.413       .  A
C1437     Br1443   1.930       .  S
C1438      C1439   1.412       .  A
C1439      C1440   1.411       .  A
C1439     Br1448   1.930       .  S
C1440     Br1444   1.929   1_655  S
C1449      C1450   1.414       .  A
C1449      C1454   1.416       .  A
C1450      C1451   1.410       .  A
C1450     Br1462   1.928       .  S
C1451      C1452   1.408       .  A
C1451     Br1466   1.930       .  S
C1452      C1455   1.487       .  S
C1452      C1453   1.408       .  A
C1453      C1454   1.408       .  A
C1453     Br1461   1.933       .  S
C1454     Br1465   1.934       .  S
C1455      C1456   1.408       .  A
C1455      C1460   1.408       .  A
C1456      C1457   1.410       .  A
C1456     Br1467   1.931       .  S
C1457      C1458   1.419       .  A
C1457     Br1463   1.934       .  S
C1458      C1459   1.415       .  A
C1459      C1460   1.407       .  A
C1459     Br3376   1.932   1_554  S
C1460     Br3372   1.932   1_554  S
Br1464     C3368   1.932       .  S
Br1468     C3367   1.932       .  S
C1469      C1470   1.416       .  A
C1469      C1474   1.416       .  A
C1470      C1471   1.408       .  A
C1470     Br1482   1.932   1_554  S
C1471      C1472   1.408       .  A
C1471     Br1486   1.933       .  S
C1472      C1475   1.487       .  S
C1472      C1473   1.407       .  A
C1473      C1474   1.409       .  A
C1473     Br3389   1.929       .  S
C1474     Br3393   1.932       .  S
C1475      C1476   1.407       .  A
C1475      C1480   1.408       .  A
C1476      C1477   1.407       .  A
C1476     Br1487   1.930       .  S
C1477      C1478   1.416       .  A
C1477     Br1483   1.933       .  S
C1478      C1479   1.418       .  A
C1479      C1480   1.410       .  A
C1479     Br1488   1.931       .  S
C1480     Br1484   1.930   1_554  S
Br1481     C3381   1.929       .  S
Br1485     C3382   1.932       .  S
C1489      C1490   1.414       .  A
C1489      C1494   1.416       .  A
C1490      C1491   1.408       .  A
C1490     Br1502   1.931       .  S
C1491      C1492   1.408       .  A
C1491     Br1506   1.931       .  S
C1492      C1495   1.483       .  S
C1492      C1493   1.406       .  A
C1493      C1494   1.408       .  A
C1493     Br1501   1.931       .  S
C1494     Br1505   1.930       .  S
C1495      C1496   1.407       .  A
C1495      C1500   1.408       .  A
C1496      C1497   1.406       .  A
C1496     Br1507   1.930       .  S
C1497      C1498   1.413       .  A
C1497     Br1503   1.932       .  S
C1498      C1499   1.413       .  A
C1499      C1500   1.408       .  A
C1499     Br1508   1.931       .  S
C1500     Br1504   1.931       .  S
C1509      C1510   1.410       .  A
C1509      C1514   1.409       .  A
C1510      C1511   1.404       .  A
C1510     Br1522   1.932       .  S
C1511      C1512   1.408       .  A
C1511     Br1526   1.930       .  S
C1512      C1515   1.482       .  S
C1512      C1513   1.410       .  A
C1513      C1514   1.409       .  A
C1513     Br1521   1.929       .  S
C1514     Br1525   1.928       .  S
C1515      C1516   1.410       .  A
C1515      C1520   1.407       .  A
C1516      C1517   1.409       .  A
C1516     Br1527   1.929       .  S
C1517      C1518   1.410       .  A
C1517     Br1523   1.930       .  S
C1518      C1519   1.412       .  A
C1519      C1520   1.405       .  A
C1519     Br1528   1.933       .  S
C1520     Br1524   1.931       .  S
C1529      C1530   1.411       .  A
C1529      C1534   1.415       .  A
C1530      C1531   1.406       .  A
C1530     Br1542   1.931       .  S
C1531      C1532   1.410       .  A
C1531     Br1546   1.931       .  S
C1532      C1535   1.485       .  S
C1532      C1533   1.408       .  A
C1533      C1534   1.409       .  A
C1533     Br1541   1.930       .  S
C1534     Br1545   1.931       .  S
C1535      C1540   1.408       .  A
C1535      C3444   1.409       .  A
C1536      C1537   1.409       .  A
C1536      C3443   1.409       .  A
C1536     Br1547   1.930       .  S
C1537      C1538   1.414       .  A
C1537     Br1543   1.931       .  S
C1538      C1539   1.411       .  A
C1539      C3448   1.406       .  A
C1539     Br1548   1.930       .  S
C1540      C3447   1.406       .  A
C1540     Br1544   1.930       .  S
C1549      C1550   1.412       .  A
C1549      C1554   1.414       .  A
C1550      C1551   1.409       .  A
C1550     Br1562   1.931       .  S
C1551      C1552   1.409       .  A
C1551     Br1566   1.928       .  S
C1552      C1555   1.484       .  S
C1552      C1553   1.407       .  A
C1553      C1554   1.406       .  A
C1553     Br1561   1.932       .  S
C1554     Br1565   1.933       .  S
C1555      C1556   1.410       .  A
C1555      C1560   1.408       .  A
C1556      C1557   1.409       .  A
C1556     Br1567   1.930       .  S
C1557      C1558   1.412       .  A
C1557     Br1563   1.931       .  S
C1558      C1559   1.410       .  A
C1559      C1560   1.406       .  A
C1559     Br1568   1.928       .  S
C1560     Br1564   1.929       .  S
C1569      C1570   1.413       .  A
C1569      C1574   1.414       .  A
C1570      C1571   1.408       .  A
C1570     Br1582   1.930       .  S
C1571      C1572   1.408       .  A
C1571     Br1586   1.929       .  S
C1572      C1575   1.484       .  S
C1572      C1573   1.408       .  A
C1573      C1574   1.407       .  A
C1573     Br3489   1.931       .  S
C1574     Br1585   1.930       .  S
C1575      C1576   1.409       .  A
C1575      C1580   1.408       .  A
C1576      C1577   1.410       .  A
C1576     Br1587   1.929       .  S
C1577      C1578   1.413       .  A
C1577     Br3491   1.929       .  S
C1578      C1579   1.413       .  A
C1579      C1580   1.406       .  A
C1579     Br1588   1.932       .  S
C1580     Br1584   1.931       .  S
Br1581     C3481   1.931   1_554  S
Br1583     C3485   1.929       .  S
C1589      C1590   1.417       .  A
C1589      C1594   1.415       .  A
C1590      C1591   1.408       .  A
C1590     Br1602   1.933       .  S
C1591      C1592   1.407       .  A
C1591     Br1606   1.930       .  S
C1592      C1595   1.486       .  S
C1592      C1593   1.409       .  A
C1593      C1594   1.409       .  A
C1593     Br1601   1.930       .  S
C1594     Br1605   1.932       .  S
C1595      C1596   1.408       .  A
C1595      C1600   1.408       .  A
C1596      C1597   1.407       .  A
C1596     Br1607   1.932       .  S
C1597      C1598   1.414       .  A
C1597     Br1603   1.932       .  S
C1598      C1599   1.414       .  A
C1599      C1600   1.410       .  A
C1599     Br1608   1.929       .  S
C1600     Br1604   1.929       .  S
C1609      C1610   1.414       .  A
C1609      C1614   1.414       .  A
C1610      C1611   1.405       .  A
C1610     Br1622   1.933       .  S
C1611      C1612   1.407       .  A
C1611     Br1626   1.933       .  S
C1612      C1615   1.481       .  S
C1612      C1613   1.407       .  A
C1613      C1614   1.409       .  A
C1613     Br1621   1.929       .  S
C1614     Br1625   1.929       .  S
C1615      C1616   1.408       .  A
C1615      C1620   1.409       .  A
C1616      C1617   1.407       .  A
C1616     Br1627   1.930       .  S
C1617      C1618   1.412       .  A
C1617     Br1623   1.931       .  S
C1618      C1619   1.409       .  A
C1619      C1620   1.406       .  A
C1619     Br1628   1.930       .  S
C1620     Br1624   1.929       .  S
C1629      C1630   1.413       .  A
C1629      C1634   1.415       .  A
C1630      C1631   1.409       .  A
C1630     Br1642   1.931       .  S
C1631      C1632   1.409       .  A
C1631     Br1646   1.930       .  S
C1632      C1635   1.485       .  S
C1632      C1633   1.407       .  A
C1633      C1634   1.407       .  A
C1633     Br1641   1.930       .  S
C1634     Br1645   1.933       .  S
C1635      C1636   1.409       .  A
C1635      C3548   1.409       .  A
C1636      C3545   1.407       .  A
C1636     Br1647   1.930       .  S
C1637      C1638   1.412       .  A
C1637      C3544   1.407   1_554  A
C1637     Br1643   1.932       .  S
C1638      C1639   1.411       .  A
C1639      C1640   1.409   1_554  A
C1639     Br1648   1.928       .  S
C1640      C3543   1.409       .  A
C1640     Br1644   1.929       .  S
C1649      C1650   1.408       .  A
C1649      C1654   1.408       .  A
C1650      C1651   1.406       .  A
C1650     Br1662   1.929       .  S
C1651      C1652   1.409       .  A
C1651     Br1666   1.929       .  S
C1652      C1655   1.483       .  S
C1652      C1653   1.410       .  A
C1653      C1654   1.408       .  A
C1653     Br1661   1.929       .  S
C1654     Br1665   1.929       .  S
C1655      C1656   1.408   1_565  A
C1655      C1660   1.408   1_565  A
C1656      C1657   1.407       .  A
C1656     Br1667   1.931   1_545  S
C1657      C1658   1.412       .  A
C1657     Br1663   1.931       .  S
C1658      C1659   1.413       .  A
C1659      C1660   1.408       .  A
C1659     Br1668   1.928       .  S
C1660     Br1664   1.930   1_545  S
C1669      C1670   1.414       .  A
C1669      C1674   1.416       .  A
C1670      C1671   1.408       .  A
C1670     Br1682   1.932       .  S
C1671      C1672   1.408       .  A
C1671     Br1686   1.930       .  S
C1672      C1675   1.486       .  S
C1672      C1673   1.408       .  A
C1673      C1674   1.408       .  A
C1673     Br1681   1.931       .  S
C1674     Br1685   1.931       .  S
C1675      C1676   1.409       .  A
C1675      C1680   1.409       .  A
C1676      C1677   1.409       .  A
C1676     Br1687   1.928       .  S
C1677      C1678   1.411       .  A
C1677     Br3591   1.929       .  S
C1678      C1679   1.412       .  A
C1679      C1680   1.407       .  A
C1679     Br1688   1.933       .  S
C1680     Br1684   1.931       .  S
Br1683     C3585   1.929       .  S
C1689      C1690   1.415       .  A
C1689      C1694   1.415       .  A
C1690      C1691   1.406       .  A
C1690     Br1702   1.931       .  S
C1691      C1692   1.407       .  A
C1691     Br1706   1.932       .  S
C1692      C1695   1.482       .  S
C1692      C1693   1.407       .  A
C1693      C1694   1.408       .  A
C1693     Br1701   1.930       .  S
C1694     Br1705   1.932       .  S
C1695      C1696   1.408       .  A
C1695      C1700   1.408       .  A
C1696      C1697   1.404       .  A
C1696     Br1707   1.931       .  S
C1697      C1698   1.411       .  A
C1697     Br1703   1.932       .  S
C1698      C1699   1.411       .  A
C1699      C1700   1.409       .  A
C1699     Br1708   1.925       .  S
C1700     Br1704   1.929       .  S
C1709      C1710   1.412   1_554  A
C1709      C1714   1.412       .  A
C1710      C3619   1.405       .  A
C1710     Br1722   1.929       .  S
C1711      C1712   1.407       .  A
C1711      C3618   1.404       .  A
C1711     Br1726   1.932       .  S
C1712      C1715   1.483       .  S
C1712      C1713   1.409       .  A
C1713      C3622   1.410       .  A
C1713     Br1721   1.929       .  S
C1714      C3621   1.410   1_554  A
C1714     Br1725   1.928       .  S
C1715      C1716   1.408       .  A
C1715      C1720   1.407       .  A
C1716      C1717   1.407       .  A
C1716     Br3635   1.930       .  S
C1717      C1718   1.413       .  A
C1717     Br1723   1.932       .  S
C1718      C1719   1.414       .  A
C1719      C1720   1.407       .  A
C1719     Br1728   1.932       .  S
C1720     Br1724   1.930       .  S
Br1727     C3624   1.930       .  S
C1729      C1730   1.414       .  A
C1729      C1734   1.414       .  A
C1730      C1731   1.411       .  A
C1730     Br1742   1.930       .  S
C1731      C1732   1.409       .  A
C1731     Br1746   1.929       .  S
C1732      C1735   1.485       .  S
C1732      C1733   1.407       .  A
C1733      C1734   1.405       .  A
C1733     Br1741   1.932       .  S
C1734     Br1745   1.931       .  S
C1735      C1736   1.409       .  A
C1735      C1740   1.408       .  A
C1736      C1737   1.408       .  A
C1736     Br1747   1.930       .  S
C1737      C1738   1.414       .  A
C1737     Br1743   1.931       .  S
C1738      C1739   1.414       .  A
C1739      C1740   1.408       .  A
C1739     Br1748   1.932       .  S
C1740     Br1744   1.931       .  S
C1749      C1750   1.411       .  A
C1749      C1754   1.412       .  A
C1750      C1751   1.407       .  A
C1750     Br1762   1.932       .  S
C1751      C1752   1.409       .  A
C1751     Br1766   1.929   1_655  S
C1752      C1755   1.486   1_655  S
C1752      C1753   1.409       .  A
C1753      C1754   1.409       .  A
C1753     Br1761   1.930       .  S
C1754     Br1765   1.929       .  S
C1755      C1756   1.410       .  A
C1755      C1760   1.408       .  A
C1756      C1757   1.409       .  A
C1756     Br1767   1.930   1_455  S
C1757      C1758   1.411       .  A
C1757     Br1763   1.930       .  S
C1758      C1759   1.412       .  A
C1759      C1760   1.407       .  A
C1759     Br1768   1.932       .  S
C1760     Br1764   1.929       .  S
C1769      C1770   1.412       .  A
C1769      C1774   1.411       .  A
C1770      C1771   1.405       .  A
C1770     Br1782   1.932       .  S
C1771      C1772   1.407       .  A
C1771     Br1786   1.931       .  S
C1772      C1775   1.482       .  S
C1772      C1773   1.409       .  A
C1773      C1774   1.409       .  A
C1773     Br1781   1.929       .  S
C1774     Br1785   1.930       .  S
C1775      C1776   1.409       .  A
C1775      C1780   1.408       .  A
C1776      C1777   1.408       .  A
C1776     Br1787   1.928       .  S
C1777      C1778   1.409       .  A
C1777     Br1783   1.929       .  S
C1778      C1779   1.412       .  A
C1779      C1780   1.405       .  A
C1779     Br1788   1.933       .  S
C1780     Br1784   1.931       .  S
C1789      C1790   1.412       .  A
C1789      C1794   1.413       .  A
C1790      C3699   1.405       .  A
C1790     Br1802   1.928       .  S
C1791      C1792   1.407       .  A
C1791      C3698   1.405       .  A
C1791     Br1806   1.933       .  S
C1792      C1795   1.480       .  S
C1792      C3701   1.407       .  A
C1793      C1794   1.408       .  A
C1793      C3700   1.407       .  A
C1793     Br1801   1.929       .  S
C1794     Br1805   1.930       .  S
C1795      C1796   1.406       .  A
C1795      C1800   1.408       .  A
C1796      C1797   1.407       .  A
C1796     Br1807   1.930       .  S
C1797      C1798   1.416       .  A
C1797     Br1803   1.933       .  S
C1798      C1799   1.413       .  A
C1799      C1800   1.405       .  A
C1799     Br1808   1.932       .  S
C1800     Br1804   1.931       .  S
C1809      C1810   1.417       .  A
C1809      C1814   1.415       .  A
C1810      C1811   1.407       .  A
C1810     Br1822   1.933       .  S
C1811      C1812   1.407       .  A
C1811     Br1826   1.933       .  S
C1812      C1815   1.486       .  S
C1812      C1813   1.408       .  A
C1813      C1814   1.410       .  A
C1813     Br1821   1.929       .  S
C1814     Br1825   1.930       .  S
C1815      C1816   1.407       .  A
C1815      C1820   1.407       .  A
C1816      C1817   1.409       .  A
C1816     Br1827   1.932       .  S
C1817      C1818   1.418       .  A
C1817     Br1823   1.933       .  S
C1818      C1819   1.418       .  A
C1819      C1820   1.408       .  A
C1819     Br1828   1.933       .  S
C1820     Br1824   1.930       .  S
C1829      C1830   1.414       .  A
C1829      C1834   1.415       .  A
C1830      C3739   1.407   1_554  A
C1830     Br3750   1.931   1_554  S
C1831      C1832   1.408       .  A
C1831      C3738   1.407       .  A
C1831     Br1846   1.931       .  S
C1832      C1835   1.481       .  S
C1832      C3741   1.406       .  A
C1833      C1834   1.406       .  A
C1833      C3740   1.406   1_554  A
C1833     Br1841   1.930       .  S
C1834     Br1845   1.933       .  S
C1835      C1836   1.408       .  A
C1835      C1840   1.407       .  A
C1836      C1837   1.406       .  A
C1836     Br1847   1.931       .  S
C1837      C1838   1.413       .  A
C1837     Br1843   1.932       .  S
C1838      C1839   1.414       .  A
C1839      C1840   1.407       .  A
C1839     Br1848   1.930       .  S
C1840     Br1844   1.930       .  S
Br1842     C3738   1.931       .  S
C1849      C1850   1.413       .  A
C1849      C1854   1.414       .  A
C1850      C1851   1.408       .  A
C1850     Br1862   1.930       .  S
C1851      C1852   1.408       .  A
C1851     Br1866   1.931       .  S
C1852      C1855   1.477       .  S
C1852      C1853   1.405       .  A
C1853      C1854   1.403       .  A
C1853     Br1861   1.932       .  S
C1854     Br1865   1.933       .  S
C1855      C1856   1.407       .  A
C1855      C1860   1.408       .  A
C1856      C1857   1.407       .  A
C1856     Br1867   1.929       .  S
C1857      C1858   1.412       .  A
C1857     Br1863   1.928       .  S
C1858      C1859   1.411       .  A
C1859      C1860   1.403       .  A
C1859     Br1868   1.933       .  S
C1860     Br1864   1.932       .  S
C1869      C1870   1.411       .  A
C1869      C1874   1.413       .  A
C1870      C1871   1.408       .  A
C1870     Br1882   1.930       .  S
C1871      C1872   1.409       .  A
C1871     Br1886   1.930   1_545  S
C1872      C1875   1.487   1_545  S
C1872      C1873   1.408       .  A
C1873      C1874   1.409       .  A
C1873     Br1881   1.929       .  S
C1874     Br1885   1.931       .  S
C1875      C1876   1.407       .  A
C1875      C1880   1.409       .  A
C1876      C1877   1.408       .  A
C1876     Br1887   1.930       .  S
C1877      C1878   1.415       .  A
C1877     Br1883   1.930       .  S
C1878      C1879   1.413       .  A
C1879      C1880   1.409       .  A
C1879     Br1888   1.930       .  S
C1880     Br1884   1.930       .  S
C1889      C1890   1.415       .  A
C1889      C1894   1.416       .  A
C1890      C1891   1.407       .  A
C1890     Br3810   1.933   1_554  S
C1891      C1892   1.407       .  A
C1891     Br3814   1.929   1_554  S
C1892      C1895   1.484       .  S
C1892      C1893   1.407       .  A
C1893      C1894   1.408       .  A
C1893     Br1901   1.931       .  S
C1894     Br1905   1.932       .  S
C1895      C1896   1.408       .  A
C1895      C1900   1.408       .  A
C1896      C1897   1.406       .  A
C1896     Br1907   1.934       .  S
C1897      C1898   1.415       .  A
C1897     Br1903   1.933       .  S
C1898      C1899   1.413       .  A
C1899      C1900   1.410       .  A
C1899     Br1908   1.929       .  S
C1900     Br1904   1.927       .  S
Br1902     C3798   1.933       .  S
Br1906     C3799   1.929       .  S
O1909      C1912   1.265       .  A
O1909     Cd1914   2.456       .  S
C1910      O1919   1.264       .  A
C1910      O1915   1.264       .  A
C1910      C3766   1.472       .  S
O1911      C1917   1.268       .  A
O1911     Cd1914   2.486       .  S
C1912      O1920   1.266       .  A
C1912      C3806   1.482       .  S
C1913      O1918   1.266       .  A
C1913      O1916   1.264       .  A
C1913      C3786   1.483       .  S
Cd1914     O1921   2.423       .  S
Cd1914     O1920   2.475       .  S
Cd1914     O1919   2.462       .  S
Cd1914     O1915   2.440       .  S
Cd1914     O1918   2.483       .  S
Cd1914     O1916   2.469       .  S
C1917      O1921   1.263       .  A
C1917      C3737   1.480       .  S
O1922      C1925   1.265       .  A
O1922     Cd1927   2.454       .  S
C1923      O1932   1.263       .  A
C1923      O1928   1.267       .  A
C1923      C3726   1.489       .  S
O1924      C1930   1.266       .  A
O1924     Cd1927   2.482       .  S
C1925      O1933   1.264       .  A
C1925      C3706   1.479       .  S
C1926      O1931   1.269       .  A
C1926      O1929   1.264       .  A
C1926      C3686   1.474       .  S
Cd1927     O1934   2.464       .  S
Cd1927     O1933   2.459       .  S
Cd1927     O1932   2.441       .  S
Cd1927     O1928   2.485       .  S
Cd1927     O1931   2.476       .  S
Cd1927     O1929   2.434       .  S
C1930      O1934   1.265       .  A
C1930      C3777   1.481       .  S
O1935      C1938   1.264       .  A
O1935     Cd1940   2.451       .  S
C1936      O1945   1.266       .  A
C1936      O1941   1.265       .  A
C1936      C3626   1.479       .  S
O1937      C1943   1.267       .  A
O1937     Cd1940   2.480       .  S
C1938      O1946   1.265       .  A
C1938      C3597   1.482       .  S
C1939      O1944   1.267       .  A
C1939      O1942   1.262       .  A
C1939      C3637   1.482       .  S
Cd1940     O1947   2.446       .  S
Cd1940     O1946   2.471       .  S
Cd1940     O1945   2.467       .  S
Cd1940     O1941   2.453       .  S
Cd1940     O1944   2.504       .  S
Cd1940     O1942   2.438       .  S
C1943      O1947   1.264       .  A
C1943      C3666   1.478       .  S
O1948      C1951   1.266       .  A
O1948     Cd1953   2.474       .  S
C1949      O1958   1.265       .  A
C1949      O1954   1.264       .  A
C1949      C3577   1.485       .  S
O1950      C1956   1.266       .  A
O1950     Cd1953   2.482       .  S
C1951      O1959   1.264       .  A
C1951      C3677   1.476       .  S
C1952      O1957   1.265       .  A
C1952      O1955   1.264       .  A
C1952      C3657   1.478       .  S
Cd1953     O1960   2.453       .  S
Cd1953     O1959   2.450       .  S
Cd1953     O1958   2.476       .  S
Cd1953     O1954   2.465       .  S
Cd1953     O1957   2.489       .  S
Cd1953     O1955   2.451       .  S
C1956      O1960   1.263       .  A
C1956      C3697   1.478       .  S
O1961      C1964   1.266       .  A
O1961     Cd1966   2.468       .  S
C1962      O1971   1.265       .  A
C1962      O1967   1.265       .  A
C1962      C3497   1.485       .  S
O1963      C1969   1.265       .  A
O1963     Cd1966   2.488       .  S
C1964      O1972   1.265       .  A
C1964      C3537   1.482       .  S
C1965      O1970   1.264       .  A
C1965      O1968   1.265       .  A
C1965      C3557   1.471       .  S
Cd1966     O1973   2.450       .  S
Cd1966     O1972   2.458       .  S
Cd1966     O1971   2.468       .  S
Cd1966     O1967   2.465       .  S
Cd1966     O1970   2.471       .  S
Cd1966     O1968   2.463       .  S
C1969      O1973   1.262       .  A
C1969      C3517   1.480       .  S
O1974      C1977   1.262       .  A
O1974     Cd1979   2.475       .  S
C1975      O1984   1.266       .  A
C1975      O1980   1.266       .  A
C1975      C3477   1.481       .  S
O1976      C1982   1.266       .  A
O1976     Cd1979   2.493       .  S
C1977      O1985   1.264       .  A
C1977      C3466   1.477       .  S
C1978      O1983   1.265       .  A
C1978      O1981   1.263       .  A
C1978      C3566   1.480       .  S
Cd1979     O1986   2.441       .  S
Cd1979     O1985   2.474       .  S
Cd1979     O1984   2.467       .  S
Cd1979     O1980   2.456       .  S
Cd1979     O1983   2.486       .  S
Cd1979     O1981   2.467       .  S
C1982      O1986   1.263       .  A
C1982      C3446   1.480       .  S
O1987      C1990   1.268       .  A
O1987     Cd1992   2.461       .  S
C1988      O1997   1.261       .  A
C1988      O1993   1.267       .  A
C1988      C3417   1.473       .  S
O1989      C1995   1.264       .  A
O1989     Cd1992   2.460       .  S
C1990      O1998   1.266       .  A
C1990      C3437   1.481       .  S
C1991      O1996   1.263       .  A
C1991      O1994   1.264       .  A
C1991      C3457   1.479       .  S
Cd1992     O1999   2.470       .  S
Cd1992     O1998   2.466       .  S
Cd1992     O1997   2.432       .  S
Cd1992     O1993   2.498       .  S
Cd1992     O1996   2.465       .  S
Cd1992     O1994   2.464       .  S
C1995      O1999   1.264       .  A
C1995      C3406   1.479       .  S
O2000      C2003   1.265       .  A
O2000     Cd2005   2.443       .  S
C2001      O2010   1.264       .  A
C2001      O2006   1.264       .  A
C2001      C3646   1.481       .  S
O2002      C2008   1.267       .  A
O2002     Cd2005   2.511       .  S
C2003      O2011   1.266       .  A
C2003      C3386   1.488       .  S
C2004      O2009   1.267       .  A
C2004      O2007   1.265       .  A
C2004      C3397   1.484       .  S
Cd2005     O2012   2.432       .  S
Cd2005     O2011   2.488       .  S
Cd2005     O2010   2.478       .  S
Cd2005     O2006   2.465       .  S
Cd2005     O2009   2.473       .  S
Cd2005     O2007   2.456       .  S
C2008      O2012   1.261       .  A
C2008      C3617   1.478       .  S
O2013      C2016   1.264       .  A
O2013     Cd2018   2.458       .  S
C2014      O2023   1.267       .  A
C2014      O2019   1.265       .  A
C2014      C3357   1.486       .  S
O2015      C2021   1.266       .  A
O2015     Cd2018   2.493       .  S
C2016      O2024   1.263       .  A
C2016      C3526   1.474       .  S
C2017      O2022   1.269       .  A
C2017      O2020   1.264       .  A
C2017      C3546   1.477       .  S
Cd2018     O2025   2.467       .  S
Cd2018     O2024   2.472       .  S
Cd2018     O2023   2.486       .  S
Cd2018     O2019   2.463       .  S
Cd2018     O2022   2.494       .  S
Cd2018     O2020   2.434       .  S
C2021      O2025   1.263       .  A
C2021      C3337   1.484       .  S
O2026      C2029   1.265       .  A
O2026     Cd2031   2.476       .  S
C2027      O2036   1.264       .  A
C2027      O2032   1.265       .  A
C2027      C3286   1.476       .  S
O2028      C2034   1.268       .  A
O2028     Cd2031   2.477       .  S
C2029      O2037   1.265       .  A
C2029      C3326   1.484       .  S
C2030      O2035   1.266       .  A
C2030      O2033   1.264       .  A
C2030      C3346   1.482       .  S
Cd2031     O2038   2.439       .  S
Cd2031     O2037   2.465       .  S
Cd2031     O2036   2.467       .  S
Cd2031     O2032   2.459       .  S
Cd2031     O2035   2.491       .  S
Cd2031     O2033   2.455       .  S
C2034      O2038   1.264       .  A
C2034      C3297   1.475       .  S
O2039      C2042   1.266       .  A
O2039     Cd2044   2.458       .  S
C2040      O2049   1.263       .  A
C2040      O2045   1.265       .  A
C2040      C3257   1.481       .  S
O2041      C2047   1.267       .  A
O2041     Cd2044   2.485       .  S
C2042      O2050   1.266       .  A
C2042      C3306   1.478       .  S
C2043      O2048   1.267       .  A
C2043      O2046   1.265       .  A
C2043      C3237   1.475       .  S
Cd2044     O2051   2.439       .  S
Cd2044     O2050   2.462       .  S
Cd2044     O2049   2.466       .  S
Cd2044     O2045   2.461       .  S
Cd2044     O2048   2.468       .  S
Cd2044     O2046   2.443       .  S
C2047      O2051   1.263       .  A
C2047      C3277   1.479       .  S
O2052      C2055   1.266       .  A
O2052     Cd2057   2.459       .  S
C2053      O2062   1.265       .  A
C2053      O2058   1.265       .  A
C2053      C3217   1.480       .  S
O2054      C2060   1.266       .  A
O2054     Cd2057   2.486       .  S
C2055      O2063   1.265       .  A
C2055      C3746   1.479       .  S
C2056      O2061   1.265       .  A
C2056      O2059   1.263       .  A
C2056      C3246   1.470       .  S
Cd2057     O2064   2.428       .  S
Cd2057     O2063   2.455       .  S
Cd2057     O2062   2.479       .  S
Cd2057     O2058   2.448       .  S
Cd2057     O2061   2.460       .  S
Cd2057     O2059   2.452       .  S
C2060      O2064   1.263       .  A
C2060      C3757   1.477       .  S
O2065      C2068   1.264       .  A
O2065     Cd2070   2.443       .  S
C2066      O2075   1.265       .  A
C2066      O2071   1.264       .  A
C2066      C3717   1.486       .  S
O2067      C2073   1.265       .  A
O2067     Cd2070   2.488       .  S
C2068      O2076   1.265       .  A
C2068      C3177   1.472       .  S
C2069      O2074   1.268       .  A
C2069      O2072   1.264       .  A
C2069      C3166   1.478       .  S
Cd2070     O2077   2.466       .  S
Cd2070     O2076   2.472       .  S
Cd2070     O2075   2.484       .  S
Cd2070     O2071   2.463       .  S
Cd2070     O2074   2.492       .  S
Cd2070     O2072   2.440       .  S
C2073      O2077   1.262       .  A
C2073      C3197   1.482       .  S
O2078      C2081   1.267       .  A
O2078     Cd2083   2.485       .  S
C2079      O2088   1.264       .  A
C2079      O2084   1.265       .  A
C2079      C3137   1.483       .  S
O2080      C2086   1.268       .  A
O2080     Cd2083   2.481       .  S
C2081      O2089   1.263       .  A
C2081      C3097   1.489       .  S
C2082      O2087   1.266       .  A
C2082      O2085   1.264       .  A
C2082      C3206   1.479       .  S
Cd2083     O2090   2.431       .  S
Cd2083     O2089   2.452       .  S
Cd2083     O2088   2.472       .  S
Cd2083     O2084   2.477       .  S
Cd2083     O2087   2.476       .  S
Cd2083     O2085   2.453       .  S
C2086      O2090   1.265       .  A
C2086      C3117   1.474       .  S
O2091      C2094   1.268       .  A
O2091     Cd2096   2.458       .  S
C2092      O2101   1.264       .  A
C2092      O2097   1.265       .  A
C2092      C3077   1.479       .  S
O2093      C2099   1.266       .  A
O2093     Cd2096   2.482       .  S
C2094      O2102   1.266       .  A
C2095      O2100   1.266       .  A
C2095      O2098   1.265       .  A
C2095      C3066   1.483       .  S
Cd2096     O2103   2.445       .  S
Cd2096     O2102   2.457       .  S
Cd2096     O2101   2.466       .  S
Cd2096     O2097   2.475       .  S
Cd2096     O2100   2.475       .  S
Cd2096     O2098   2.465       .  S
C2099      O2103   1.262       .  A
C2099      C3146   1.474       .  S
O2104     Cd2109   2.459       .  S
C2105      O2114   1.266       .  A
C2105      O2110   1.267       .  A
C2105      C3026   1.478       .  S
O2106      C2112   1.265       .  A
O2106     Cd2109   2.495       .  S
C2107      O2115   1.265       .  A
C2107      C3486   1.480       .  S
C2108      O2113   1.266       .  A
C2108      O2111   1.262       .  A
C2108      C3046   1.476       .  S
Cd2109     O2116   2.474       .  S
Cd2109     O2114   2.452       .  S
Cd2109     O2110   2.460       .  S
C2112      O2116   1.263       .  A
C2112      C3057   1.485       .  S
O2117      C2120   1.265       .  A
O2117     Cd2122   2.446       .  S
C2118      O2127   1.266       .  A
C2118      O2123   1.266       .  A
C2118      C3426   1.474       .  S
O2119      C2125   1.267       .  A
O2119     Cd2122   2.488       .  S
C2120      O2128   1.265       .  A
C2120      C3037   1.478       .  S
C2121      O2126   1.269       .  A
C2121      O2124   1.262       .  A
C2121      C3017   1.487       .  S
Cd2122     O2129   2.440       .  S
Cd2122     O2128   2.471       .  S
Cd2122     O2127   2.457       .  S
Cd2122     O2123   2.454       .  S
Cd2122     O2126   2.500       .  S
Cd2122     O2124   2.431       .  S
C2125      O2129   1.263       .  A
C2125      C2997   1.477       .  S
O2130      C2133   1.266       .  A
O2130     Cd2135   2.453       .  S
C2131      O2140   1.262       .  A
C2131      O2136   1.263       .  A
C2131      C2937   1.476       .  S
O2132      C2138   1.268       .  A
O2132     Cd2135   2.488       .  S
C2133      O2141   1.268       .  A
C2133      C2977   1.487       .  S
C2134      O2139   1.264       .  A
C2134      O2137   1.263       .  A
C2134      C3006   1.482       .  S
Cd2135     O2142   2.419       .  S
Cd2135     O2141   2.471       .  S
Cd2135     O2140   2.470       .  S
Cd2135     O2136   2.463       .  S
Cd2135     O2139   2.491       .  S
Cd2135     O2137   2.467       .  S
C2138      O2142   1.263       .  A
C2138      C2966   1.482       .  S
O2143      C2146   1.264       .  A
O2143     Cd2148   2.459       .  S
C2144      O2153   1.265       .  A
C2144      O2149   1.265       .  A
C2144      C2917   1.486       .  S
O2145      C2151   1.267       .  A
O2145     Cd2148   2.477       .  S
C2146      O2154   1.264       .  A
C2147      O2152   1.264       .  A
C2147      O2150   1.264       .  A
C2147      C2906   1.482       .  S
Cd2148     O2155   2.426       .  S
Cd2148     O2154   2.480       .  S
Cd2148     O2153   2.466       .  S
Cd2148     O2149   2.481       .  S
Cd2148     O2152   2.476       .  S
Cd2148     O2150   2.470       .  S
C2151      O2155   1.264       .  A
C2151      C2946   1.478       .  S
O2156      C2159   1.266       .  A
O2156     Cd2161   2.448       .  S
C2157      O2166   1.264       .  A
C2157      C3266   1.478       .  S
O2158      C2164   1.266       .  A
C2159      O2167   1.267       .  A
C2159      C2866   1.482       .  S
C2160      O2165   1.265       .  A
C2160      O2163   1.263       .  A
C2160      C2897   1.480       .  S
Cd2161     O2167   2.466       .  S
Cd2161     O2162   2.456       .  S
Cd2161     O2165   2.476       .  S
Cd2161     O2163   2.459       .  S
C2164      O2168   1.263       .  A
C2164      C2877   1.477       .  S
O2169      C2172   1.265       .  A
O2169     Cd2174   2.477       .  S
C2170      O2179   1.263       .  A
C2170      O2175   1.267       .  A
C2170      C3317   1.489       .  S
O2171      C2177   1.265       .  A
O2171     Cd2174   2.489       .  S
C2172      O2180   1.264       .  A
C2172      C2886   1.489       .  S
C2173      O2178   1.268       .  A
C2173      O2176   1.264       .  A
C2173      C2857   1.483       .  S
Cd2174     O2181   2.469       .  S
Cd2174     O2180   2.486       .  S
Cd2174     O2179   2.452       .  S
Cd2174     O2175   2.492       .  S
Cd2174     O2178   2.487       .  S
Cd2174     O2176   2.441       .  S
C2177      O2181   1.264       .  A
C2177      C2837   1.484       .  S
O2182      C2185   1.264       .  A
O2182     Cd2187   2.462       .  S
C2183      O2192   1.266       .  A
C2183      O2188   1.267       .  A
C2183      C2777   1.482       .  S
O2184      C2190   1.265       .  A
O2184     Cd2187   2.476       .  S
C2185      O2193   1.264       .  A
C2185      C2817   1.479       .  S
C2186      O2191   1.265       .  A
C2186      O2189   1.265       .  A
C2186      C2846   1.478       .  S
Cd2187     O2194   2.443       .  S
Cd2187     O2193   2.476       .  S
Cd2187     O2192   2.458       .  S
Cd2187     O2188   2.464       .  S
Cd2187     O2191   2.472       .  S
Cd2187     O2189   2.466       .  S
C2190      O2194   1.263       .  A
C2190      C2806   1.475       .  S
O2195      C2198   1.265       .  A
O2195     Cd2200   2.455       .  S
C2196      O2205   1.264       .  A
C2196      C3586   1.478       .  S
O2197      C2203   1.267       .  A
C2198      O2206   1.265       .  A
C2198      C3157   1.480       .  S
C2199      O2204   1.264       .  A
C2199      O2202   1.265       .  A
C2199      C2766   1.485       .  S
Cd2200     O2206   2.478       .  S
Cd2200     O2201   2.471       .  S
Cd2200     O2204   2.474       .  S
Cd2200     O2202   2.479       .  S
C2203      O2207   1.263       .  A
C2203      C3186   1.475       .  S
O2208      C2211   1.266       .  A
O2208     Cd2213   2.453       .  S
C2209      O2218   1.264       .  A
C2209      O2214   1.264       .  A
O2210      C2216   1.268       .  A
O2210     Cd2213   2.484       .  S
C2211      O2219   1.266       .  A
C2211      C2737   1.477       .  S
C2212      O2217   1.269       .  A
C2212      O2215   1.262       .  A
C2212      C2786   1.482       .  S
Cd2213     O2220   2.460       .  S
Cd2213     O2219   2.461       .  S
Cd2213     O2218   2.458       .  S
Cd2213     O2214   2.445       .  S
Cd2213     O2217   2.489       .  S
Cd2213     O2215   2.431       .  S
C2216      O2220   1.265       .  A
C2216      C2757   1.486       .  S
O2221      C2224   1.263       .  A
O2221     Cd2226   2.461       .  S
C2222      O2231   1.265       .  A
C2222      O2227   1.264       .  A
O2223      C2229   1.267       .  A
O2223     Cd2226   2.482       .  S
C2224      O2232   1.265       .  A
C2224      C2826   1.480       .  S
C2225      O2230   1.266       .  A
C2225      O2228   1.264       .  A
C2225      C2726   1.480       .  S
Cd2226     O2233   2.444       .  S
Cd2226     O2232   2.481       .  S
Cd2226     O2231   2.466       .  S
Cd2226     O2227   2.453       .  S
Cd2226     O2230   2.478       .  S
Cd2226     O2228   2.458       .  S
C2229      O2233   1.264       .  A
C2229      C2706   1.480       .  S
O2234     Cd2239   2.451       .  S
C2235      O2244   1.264       .  A
C2235      O2240   1.265       .  A
C2235      C2637   1.482       .  S
O2236      C2242   1.268       .  A
C2237      O2245   1.266       .  A
C2237      C3366   1.487       .  S
C2238      O2243   1.267       .  A
C2238      O2241   1.265       .  A
C2238      C2717   1.480       .  S
Cd2239     O2244   2.467       .  S
Cd2239     O2240   2.472       .  S
Cd2239     O2243   2.480       .  S
Cd2239     O2241   2.454       .  S
C2242      O2246   1.262       .  A
C2242      C2666   1.484       .  S
O2247      C2250   1.265       .  A
O2247     Cd2252   2.470       .  S
C2248      O2257   1.266       .  A
C2248      O2253   1.267       .  A
C2248      C3606   1.476       .  S
O2249      C2255   1.269       .  A
O2249     Cd2252   2.498       .  S
C2250      O2258   1.264       .  A
C2250      C2606   1.485       .  S
C2251      O2256   1.266       .  A
C2251      O2254   1.264       .  A
C2251      C2617   1.484       .  S
Cd2252     O2259   2.431       .  S
Cd2252     O2258   2.475       .  S
Cd2252     O2257   2.465       .  S
Cd2252     O2253   2.452       .  S
Cd2252     O2256   2.485       .  S
Cd2252     O2254   2.472       .  S
C2255      O2259   1.262       .  A
C2255      C2577   1.477       .  S
O2260      C2263   1.266       .  A
O2260     Cd2265   2.480       .  S
C2261      O2270   1.263       .  A
C2261      O2266   1.266       .  A
C2261      C2746   1.476       .  S
O2262      C2268   1.269       .  A
O2262     Cd2265   2.480       .  S
C2263      O2271   1.264       .  A
C2263      C2697   1.491       .  S
C2264      O2269   1.266       .  A
C2264      O2267   1.263       .  A
C2264      C2626   1.480       .  S
Cd2265     O2272   2.435       .  S
Cd2265     O2271   2.464       .  S
Cd2265     O2270   2.467       .  S
Cd2265     O2266   2.471       .  S
Cd2265     O2269   2.489       .  S
Cd2265     O2267   2.463       .  S
C2268      O2272   1.265       .  A
C2268      C2686   1.480       .  S
O2273      C2276   1.267       .  A
O2273     Cd2278   2.455       .  S
C2274      O2283   1.266       .  A
C2274      O2279   1.265       .  A
C2274      C3506   1.484       .  S
O2275      C2281   1.265       .  A
O2275     Cd2278   2.477       .  S
C2276      O2284   1.265       .  A
C2276      C2657   1.478       .  S
C2277      O2282   1.264       .  A
C2277      O2280   1.262       .  A
C2277      C2557   1.479       .  S
Cd2278     O2285   2.453       .  S
Cd2278     O2284   2.455       .  S
Cd2278     O2283   2.481       .  S
Cd2278     O2279   2.466       .  S
Cd2278     O2282   2.493       .  S
Cd2278     O2280   2.460       .  S
C2281      O2285   1.262       .  A
C2281      C2646   1.479       .  S
O2286      C2289   1.267       .  A
O2286     Cd2291   2.469       .  S
C2287      O2296   1.264       .  A
C2287      O2292   1.266       .  A
C2287      C2537   1.481       .  S
O2288      C2294   1.266       .  A
O2288     Cd2291   2.467       .  S
C2289      O2297   1.265       .  A
C2289      C3086   1.483       .  S
C2290      O2295   1.267       .  A
C2290      O2293   1.262       .  A
C2290      C2517   1.481       .  S
Cd2291     O2298   2.460       .  S
Cd2291     O2297   2.458       .  S
Cd2291     O2296   2.467       .  S
Cd2291     O2292   2.463       .  S
Cd2291     O2295   2.491       .  S
Cd2291     O2293   2.431       .  S
C2294      O2298   1.266       .  A
C2294      C2566   1.476       .  S
O2299      C2302   1.265       .  A
O2299     Cd2304   2.462   1_556  S
C2300      O2309   1.265       .  A
C2300      C3797   1.484       .  S
O2301      C2307   1.268   1_554  A
O2301     Cd2304   2.475       .  S
C2302      O2310   1.264       .  A
C2302      C2457   1.477       .  S
C2303      O2308   1.267       .  A
C2303      O2306   1.263       .  A
C2303      C2477   1.479       .  S
Cd2304     O2311   2.455   1_554  S
Cd2304     O2310   2.470   1_554  S
Cd2304     O2305   2.450       .  S
C2307      O2311   1.264       .  A
C2307      C2497   1.481       .  S
O2312      C2315   1.265       .  A
O2312     Cd2317   2.462       .  S
C2313      O2322   1.265       .  A
C2313      O2318   1.263       .  A
O2314      C2320   1.267       .  A
O2314     Cd2317   2.482       .  S
C2315      O2323   1.266       .  A
C2315      C3106   1.482       .  S
C2316      O2321   1.264       .  A
C2316      O2319   1.264       .  A
C2316      C2506   1.482       .  S
Cd2317     O2324   2.441       .  S
Cd2317     O2323   2.465       .  S
Cd2317     O2322   2.484       .  S
Cd2317     O2318   2.452       .  S
Cd2317     O2321   2.479       .  S
Cd2317     O2319   2.473       .  S
C2320      O2324   1.263       .  A
C2320      C2546   1.471       .  S
O2325     Cd2330   2.491       .  S
C2326      O2335   1.264       .  A
C2326      O2331   1.265       .  A
C2326      C2586   1.476       .  S
O2327      C2333   1.263       .  A
C2328      O2336   1.262       .  A
C2328      C3377   1.486       .  S
C2329      O2334   1.266   1_556  A
C2329      O2332   1.263       .  A
C2329      C2437   1.472       .  S
Cd2330     O2335   2.474       .  S
Cd2330     O2331   2.458       .  S
Cd2330     O2334   2.485   1_556  S
Cd2330     O2332   2.451       .  S
C2333      O2337   1.265       .  A
C2333      C2597   1.477       .  S
O2338      C2341   1.265       .  A
O2338     Cd2343   2.458       .  S
C2339      O2348   1.262       .  A
C2339      O2344   1.266       .  A
C2339      C2986   1.490       .  S
O2340      C2346   1.265       .  A
O2340     Cd2343   2.480       .  S
C2341      O2349   1.264       .  A
C2342      O2347   1.268       .  A
C2342      O2345   1.265       .  A
C2342      C2426   1.468       .  S
Cd2343     O2350   2.457       .  S
Cd2343     O2349   2.465       .  S
Cd2343     O2348   2.441       .  S
Cd2343     O2344   2.484       .  S
Cd2343     O2347   2.472       .  S
Cd2343     O2345   2.431       .  S
C2346      O2350   1.263       .  A
C2346      C2446   1.480       .  S
O2351      C2354   1.264       .  A
O2351     Cd2356   2.445       .  S
C2352      O2361   1.266       .  A
C2352      O2357   1.265       .  A
C2352      C2926   1.487       .  S
O2353      C2359   1.267       .  A
O2353     Cd2356   2.471       .  S
C2354      O2362   1.263       .  A
C2354      C2417   1.472       .  S
C2355      O2360   1.265       .  A
C2355      O2358   1.263       .  A
C2355      C2386   1.475       .  S
Cd2356     O2363   2.449       .  S
Cd2356     O2362   2.459       .  S
Cd2356     O2361   2.466       .  S
Cd2356     O2357   2.462       .  S
Cd2356     O2360   2.466       .  S
Cd2356     O2358   2.451       .  S
C2359      O2363   1.264       .  A
C2359      C2397   1.485       .  S
O2364      C2367   1.263       .  A
O2364     Cd2369   2.457       .  S
C2365      O2374   1.265       .  A
C2365      O2370   1.265       .  A
C2365      C3226   1.475       .  S
O2366      C2372   1.266       .  A
O2366     Cd2369   2.487       .  S
C2367      O2375   1.265       .  A
C2367      C2486   1.484       .  S
C2368      O2373   1.265       .  A
C2368      O2371   1.264       .  A
C2368      C2377   1.478       .  S
Cd2369     O2376   2.445       .  S
Cd2369     O2375   2.489       .  S
Cd2369     O2374   2.463       .  S
Cd2369     O2370   2.449       .  S
Cd2369     O2373   2.471       .  S
Cd2369     O2371   2.454       .  S
C2372      O2376   1.264       .  A
C2372      C2466   1.478       .  S
C2377      C2378   1.413       .  A
C2377      C2382   1.413       .  A
C2378      C2379   1.405       .  A
C2378     Br2390   1.932       .  S
C2379      C2380   1.408       .  A
C2379     Br2394   1.932       .  S
C2380      C2383   1.483       .  S
C2380      C2381   1.409       .  A
C2381      C2382   1.408       .  A
C2381     Br2389   1.931       .  S
C2382     Br2393   1.931       .  S
C2383      C2384   1.409       .  A
C2383      C2388   1.410       .  A
C2384      C2385   1.407       .  A
C2384     Br2395   1.930       .  S
C2385      C2386   1.412       .  A
C2385     Br2391   1.932       .  S
C2386      C2387   1.410       .  A
C2387      C2388   1.406       .  A
C2387     Br2396   1.931       .  S
C2388     Br2392   1.931       .  S
C2397      C2398   1.416       .  A
C2397      C2402   1.417       .  A
C2398      C2399   1.408       .  A
C2398     Br2410   1.932       .  S
C2399      C2400   1.407       .  A
C2399     Br2414   1.930       .  S
C2400      C2403   1.482       .  S
C2400      C2401   1.405       .  A
C2401      C2402   1.406       .  A
C2401     Br2409   1.932       .  S
C2402     Br2413   1.930       .  S
C2403      C2404   1.407       .  A
C2403      C2408   1.407       .  A
C2404      C2405   1.409       .  A
C2404     Br2415   1.930       .  S
C2405      C2406   1.417       .  A
C2405     Br2411   1.931       .  S
C2406      C2407   1.414       .  A
C2407      C2408   1.405       .  A
C2407     Br2416   1.933       .  S
C2408     Br2412   1.933       .  S
C2417      C2418   1.410       .  A
C2417      C2422   1.412       .  A
C2418      C2419   1.405       .  A
C2418     Br2430   1.932       .  S
C2419      C2420   1.408       .  A
C2419     Br2434   1.929       .  S
C2420      C2423   1.478       .  S
C2420      C2421   1.407       .  A
C2421      C2422   1.405       .  A
C2421     Br2429   1.930       .  S
C2422     Br2433   1.929       .  S
C2423      C2424   1.408       .  A
C2423      C2428   1.408       .  A
C2424      C2425   1.405       .  A
C2424     Br2435   1.931       .  S
C2425      C2426   1.409       .  A
C2425     Br2431   1.929       .  S
C2426      C2427   1.407       .  A
C2427      C2428   1.406       .  A
C2427     Br2436   1.928       .  S
C2428     Br2432   1.929       .  S
C2437      C2438   1.408   1_556  A
C2437      C2442   1.409       .  A
C2438      C2439   1.408   1_554  A
C2439      C2440   1.410       .  A
C2440      C2443   1.483       .  S
C2440      C2441   1.408       .  A
C2441      C2442   1.406       .  A
C2441     Br2449   1.930       .  S
C2442     Br2453   1.930       .  S
C2443      C2444   1.407       .  A
C2443      C2448   1.408       .  A
C2444      C2445   1.408       .  A
C2444     Br2455   1.930       .  S
C2445      C2446   1.414       .  A
C2445     Br2451   1.931       .  S
C2446      C2447   1.413       .  A
C2447      C2448   1.407       .  A
C2447     Br2456   1.932       .  S
C2448     Br2452   1.931       .  S
C2457      C2458   1.410       .  A
C2457      C2462   1.412       .  A
C2458      C2459   1.406       .  A
C2458     Br2470   1.929       .  S
C2459      C2460   1.408       .  A
C2459     Br2474   1.930       .  S
C2460      C2463   1.483       .  S
C2460      C2461   1.408       .  A
C2461      C2462   1.408       .  A
C2461     Br2469   1.929       .  S
C2462     Br2473   1.931       .  S
C2463      C2464   1.409       .  A
C2463      C2468   1.408       .  A
C2464      C2465   1.410       .  A
C2464     Br2475   1.928       .  S
C2465      C2466   1.412       .  A
C2465     Br2471   1.929       .  S
C2466      C2467   1.411       .  A
C2467      C2468   1.405       .  A
C2467     Br2476   1.932       .  S
C2468     Br2472   1.932       .  S
C2477      C2478   1.412       .  A
C2477      C2482   1.412       .  A
C2478      C2479   1.409       .  A
C2478     Br2490   1.931       .  S
C2479      C2480   1.409       .  A
C2479     Br2494   1.928       .  S
C2480      C2483   1.485       .  S
C2480      C2481   1.409       .  A
C2481      C2482   1.407       .  A
C2481     Br2489   1.932       .  S
C2482     Br2493   1.930       .  S
C2483      C2484   1.408       .  A
C2483      C2488   1.408       .  A
C2484      C2485   1.410       .  A
C2484     Br2495   1.929       .  S
C2485      C2486   1.415       .  A
C2485     Br2491   1.931       .  S
C2486      C2487   1.414       .  A
C2487      C2488   1.407       .  A
C2487     Br2496   1.932       .  S
C2488     Br2492   1.931       .  S
C2497      C2498   1.414       .  A
C2497      C2502   1.412   1_556  A
C2498      C2499   1.407       .  A
C2498     Br2510   1.929       .  S
C2499      C2500   1.408       .  A
C2499     Br2514   1.931       .  S
C2500      C2503   1.485       .  S
C2500      C2501   1.409       .  A
C2501      C2502   1.408   1_556  A
C2503      C2504   1.409       .  A
C2503      C2508   1.408       .  A
C2504      C2505   1.409       .  A
C2504     Br2515   1.930       .  S
C2505      C2506   1.413       .  A
C2505     Br2511   1.930       .  S
C2506      C2507   1.413       .  A
C2507      C2508   1.408       .  A
C2507     Br2516   1.930       .  S
C2508     Br2512   1.931       .  S
C2517      C2518   1.414       .  A
C2517      C2522   1.416       .  A
C2518      C2519   1.408       .  A
C2518     Br2530   1.931       .  S
C2519      C2520   1.408       .  A
C2519     Br2534   1.930       .  S
C2520      C2523   1.481       .  S
C2520      C2521   1.406       .  A
C2521      C2522   1.405       .  A
C2521     Br2529   1.931       .  S
C2522     Br2533   1.933       .  S
C2523      C2524   1.408       .  A
C2523      C2528   1.408       .  A
C2524      C2525   1.408       .  A
C2524     Br2535   1.929       .  S
C2525      C2526   1.412       .  A
C2525     Br2531   1.929       .  S
C2526      C2527   1.412       .  A
C2527      C2528   1.405       .  A
C2528     Br2532   1.932       .  S
C2537      C2538   1.413       .  A
C2537      C2542   1.415       .  A
C2538      C2539   1.407       .  A
C2538     Br2550   1.931       .  S
C2539      C2540   1.408       .  A
C2539     Br2554   1.930       .  S
C2540      C2543   1.483       .  S
C2540      C2541   1.407       .  A
C2541      C2542   1.408       .  A
C2541     Br2549   1.931       .  S
C2542     Br2553   1.931       .  S
C2543      C2544   1.409       .  A
C2543      C2548   1.409       .  A
C2544      C2545   1.405       .  A
C2544     Br2555   1.931       .  S
C2545      C2546   1.409       .  A
C2545     Br2551   1.932       .  S
C2546      C2547   1.409       .  A
C2547      C2548   1.408       .  A
C2547     Br2556   1.929       .  S
C2548     Br2552   1.928       .  S
C2557      C2558   1.412       .  A
C2557      C2562   1.411       .  A
C2558      C2559   1.410       .  A
C2558     Br2570   1.930       .  S
C2559      C2560   1.410       .  A
C2559     Br2574   1.930       .  S
C2560      C2563   1.486       .  S
C2560      C2561   1.409       .  A
C2561      C2562   1.406       .  A
C2561     Br2569   1.930       .  S
C2562     Br2573   1.931       .  S
C2563      C2564   1.410       .  A
C2563      C2568   1.410       .  A
C2564      C2565   1.407       .  A
C2564     Br2575   1.930       .  S
C2565      C2566   1.410       .  A
C2565     Br2571   1.931       .  S
C2566      C2567   1.410       .  A
C2567      C2568   1.408       .  A
C2567     Br2576   1.930       .  S
C2568     Br2572   1.930       .  S
C2577      C2578   1.412       .  A
C2577      C2582   1.411       .  A
C2578      C2579   1.405       .  A
C2578     Br2590   1.932       .  S
C2579      C2580   1.408       .  A
C2579     Br2594   1.931       .  S
C2580      C2583   1.483       .  S
C2580      C2581   1.409       .  A
C2581      C2582   1.410       .  A
C2581     Br2589   1.929       .  S
C2582     Br2593   1.929       .  S
C2583      C2584   1.408       .  A
C2583      C2588   1.409       .  A
C2584      C2585   1.406       .  A
C2584     Br2595   1.930       .  S
C2585      C2586   1.411       .  A
C2585     Br2591   1.930       .  S
C2586      C2587   1.411       .  A
C2587      C2588   1.408       .  A
C2587     Br2596   1.930       .  S
C2588     Br2592   1.929       .  S
C2597      C2598   1.413       .  A
C2597      C2602   1.412       .  A
C2598      C2599   1.405       .  A
C2598     Br2610   1.931       .  S
C2599      C2600   1.407       .  A
C2599     Br2614   1.932       .  S
C2600      C2603   1.482       .  S
C2600      C2601   1.408       .  A
C2601      C2602   1.408       .  A
C2601     Br2609   1.929       .  S
C2602     Br2613   1.930       .  S
C2603      C2604   1.406       .  A
C2603      C2608   1.407       .  A
C2604      C2605   1.409       .  A
C2604     Br2615   1.931       .  S
C2605      C2606   1.417       .  A
C2605     Br2611   1.930       .  S
C2606      C2607   1.416       .  A
C2607      C2608   1.406       .  A
C2607     Br2616   1.932       .  S
C2608     Br2612   1.933       .  S
C2617      C2618   1.412       .  A
C2617      C2622   1.414       .  A
C2618      C2619   1.409       .  A
C2618     Br2630   1.930       .  S
C2619      C2620   1.409       .  A
C2619     Br2634   1.929       .  S
C2620      C2623   1.487       .  S
C2620      C2621   1.407       .  A
C2621      C2622   1.409       .  A
C2621     Br2629   1.931       .  S
C2622     Br2633   1.927       .  S
C2623      C2624   1.408       .  A
C2623      C2628   1.409       .  A
C2624      C2625   1.408       .  A
C2624     Br2635   1.930       .  S
C2625      C2626   1.413       .  A
C2625     Br2631   1.931       .  S
C2626      C2627   1.411       .  A
C2627      C2628   1.409       .  A
C2627     Br2636   1.930       .  S
C2628     Br2632   1.929       .  S
C2637      C2638   1.413       .  A
C2637      C2642   1.414       .  A
C2638      C2639   1.407       .  A
C2638     Br2650   1.932       .  S
C2639      C2640   1.409       .  A
C2639     Br2654   1.932       .  S
C2640      C2643   1.486       .  S
C2640      C2641   1.408       .  A
C2641      C2642   1.409       .  A
C2641     Br2649   1.930       .  S
C2642     Br2653   1.931       .  S
C2643      C2644   1.408       .  A
C2643      C2648   1.410       .  A
C2644      C2645   1.406       .  A
C2644     Br2655   1.931       .  S
C2645      C2646   1.415       .  A
C2645     Br2651   1.934       .  S
C2646      C2647   1.411       .  A
C2647      C2648   1.409       .  A
C2647     Br2656   1.930       .  S
C2648     Br2652   1.929       .  S
C2657      C2658   1.413       .  A
C2657      C2662   1.413       .  A
C2658      C2659   1.408       .  A
C2658     Br2670   1.930       .  S
C2659      C2660   1.408       .  A
C2659     Br2674   1.929       .  S
C2660      C2663   1.482       .  S
C2660      C2661   1.408       .  A
C2661      C2662   1.406       .  A
C2661     Br2669   1.931       .  S
C2662     Br2673   1.933       .  S
C2663      C2664   1.406       .  A
C2663      C2668   1.408       .  A
C2664      C2665   1.406       .  A
C2664     Br2675   1.933       .  S
C2665      C2666   1.417       .  A
C2665     Br2671   1.933       .  S
C2666      C2667   1.415       .  A
C2667      C2668   1.409       .  A
C2667     Br2676   1.931       .  S
C2668     Br2672   1.930       .  S
C2677      C2678   1.414       .  A
C2677      C2682   1.413       .  A
C2678      C2679   1.409       .  A
C2678     Br2690   1.931       .  S
C2679      C2680   1.408       .  A
C2679     Br2694   1.929       .  S
C2680      C2683   1.483       .  S
C2680      C2681   1.408       .  A
C2681      C2682   1.405       .  A
C2681     Br2689   1.933       .  S
C2683      C2684   1.409       .  A
C2683      C2688   1.408       .  A
C2684      C2685   1.406       .  A
C2684     Br2695   1.932       .  S
C2685      C2686   1.413       .  A
C2685     Br2691   1.930       .  S
C2686      C2687   1.414       .  A
C2687      C2688   1.408       .  A
C2687     Br2696   1.931       .  S
C2688     Br2692   1.930       .  S
C2697      C2698   1.418       .  A
C2697      C2702   1.419       .  A
C2698      C2699   1.408       .  A
C2698     Br2710   1.932       .  S
C2699      C2700   1.408       .  A
C2699     Br2714   1.934       .  S
C2700      C2703   1.486       .  S
C2700      C2701   1.406       .  A
C2701      C2702   1.410       .  A
C2701     Br2709   1.930       .  S
C2702     Br2713   1.932       .  S
C2703      C2704   1.409       .  A
C2703      C2708   1.408       .  A
C2704      C2705   1.408       .  A
C2704     Br2715   1.930       .  S
C2705      C2706   1.413       .  A
C2705     Br2711   1.931       .  S
C2706      C2707   1.414       .  A
C2707      C2708   1.408       .  A
C2707     Br2716   1.932       .  S
C2708     Br2712   1.929       .  S
C2717      C2718   1.413       .  A
C2717      C2722   1.413       .  A
C2718      C2719   1.408       .  A
C2718     Br2730   1.929       .  S
C2719      C2720   1.408       .  A
C2719     Br2734   1.930       .  S
C2720      C2723   1.483       .  S
C2720      C2721   1.408       .  A
C2721      C2722   1.407       .  A
C2721     Br2729   1.931       .  S
C2722     Br2733   1.931       .  S
C2723      C2724   1.408       .  A
C2723      C2728   1.407       .  A
C2724      C2725   1.408       .  A
C2724     Br2735   1.930       .  S
C2725      C2726   1.413       .  A
C2725     Br2731   1.930       .  S
C2726      C2727   1.414       .  A
C2727      C2728   1.407       .  A
C2737      C2738   1.412       .  A
C2737      C2742   1.413       .  A
C2738      C2739   1.408       .  A
C2738     Br2750   1.930       .  S
C2739      C2740   1.408       .  A
C2739     Br2754   1.929   1_655  S
C2740      C2743   1.484   1_655  S
C2740      C2741   1.409       .  A
C2741      C2742   1.406       .  A
C2741     Br2749   1.933       .  S
C2742     Br2753   1.933       .  S
C2743      C2744   1.409       .  A
C2743      C2748   1.409       .  A
C2744      C2745   1.407       .  A
C2744     Br2755   1.929       .  S
C2745      C2746   1.410       .  A
C2745     Br2751   1.928       .  S
C2746      C2747   1.412       .  A
C2747      C2748   1.407       .  A
C2747     Br2756   1.932       .  S
C2748     Br2752   1.931       .  S
C2757      C2758   1.416       .  A
C2757      C2762   1.413       .  A
C2758      C2759   1.410       .  A
C2759      C2760   1.409       .  A
C2760      C2763   1.488       .  S
C2760      C2761   1.409       .  A
C2761      C2762   1.409       .  A
C2761     Br2769   1.931       .  S
C2762     Br2773   1.930       .  S
C2763      C2764   1.409       .  A
C2763      C2768   1.409       .  A
C2764      C2765   1.409       .  A
C2764     Br2775   1.931       .  S
C2765      C2766   1.415       .  A
C2765     Br2771   1.932       .  S
C2766      C2767   1.414       .  A
C2767      C2768   1.409       .  A
C2767     Br2776   1.931       .  S
C2768     Br2772   1.931       .  S
C2777      C2778   1.414       .  A
C2777      C2782   1.414       .  A
C2778      C2779   1.407       .  A
C2778     Br2790   1.932       .  S
C2779      C2780   1.408       .  A
C2779     Br2794   1.932       .  S
C2780      C2783   1.484       .  S
C2780      C2781   1.407       .  A
C2781      C2782   1.408       .  A
C2781     Br2789   1.930       .  S
C2782     Br2793   1.931       .  S
C2783      C2784   1.407       .  A
C2783      C2788   1.408       .  A
C2784      C2785   1.407       .  A
C2784     Br2795   1.931       .  S
C2785      C2786   1.416       .  A
C2785     Br2791   1.932       .  S
C2786      C2787   1.413       .  A
C2787      C2788   1.408       .  A
C2787     Br2796   1.931       .  S
C2788     Br2792   1.930       .  S
C2797      C2798   1.416   1_556  A
C2797      C2802   1.414       .  A
C2798      C2799   1.406   1_554  A
C2799      C2800   1.406       .  A
C2799     Br2814   1.931       .  S
C2800      C2803   1.480       .  S
C2800      C2801   1.407       .  A
C2801      C2802   1.406       .  A
C2801     Br2809   1.930       .  S
C2802     Br2813   1.933       .  S
C2803      C2804   1.408       .  A
C2803      C2808   1.408       .  A
C2804      C2805   1.407       .  A
C2804     Br2815   1.929       .  S
C2805      C2806   1.411       .  A
C2805     Br2811   1.930       .  S
C2806      C2807   1.412       .  A
C2807      C2808   1.405       .  A
C2807     Br2816   1.932       .  S
C2808     Br2812   1.932       .  S
C2817      C2818   1.413       .  A
C2817      C2822   1.412       .  A
C2818      C2819   1.406       .  A
C2818     Br2830   1.933       .  S
C2819      C2820   1.408       .  A
C2819     Br2834   1.932       .  S
C2820      C2823   1.483   1_655  S
C2820      C2821   1.408       .  A
C2821      C2822   1.409       .  A
C2821     Br2829   1.929       .  S
C2822     Br2833   1.929       .  S
C2823      C2824   1.408       .  A
C2823      C2828   1.408       .  A
C2824      C2825   1.408       .  A
C2824     Br2835   1.929   1_455  S
C2825      C2826   1.413       .  A
C2825     Br2831   1.930       .  S
C2826      C2827   1.413       .  A
C2827      C2828   1.406       .  A
C2827     Br2836   1.931       .  S
C2828     Br2832   1.932       .  S
C2837      C2838   1.414       .  A
C2837      C2842   1.414       .  A
C2838      C2839   1.409       .  A
C2838     Br2850   1.930       .  S
C2839      C2840   1.408       .  A
C2839     Br2854   1.931       .  S
C2840      C2843   1.485       .  S
C2840      C2841   1.407       .  A
C2841      C2842   1.408       .  A
C2841     Br2849   1.931       .  S
C2842     Br2853   1.931       .  S
C2843      C2844   1.409       .  A
C2843      C2848   1.408       .  A
C2844      C2845   1.407       .  A
C2844     Br2855   1.930       .  S
C2845      C2846   1.411       .  A
C2845     Br2851   1.930       .  S
C2846      C2847   1.412       .  A
C2847      C2848   1.408       .  A
C2847     Br2856   1.931       .  S
C2848     Br2852   1.929       .  S
C2857      C2858   1.414       .  A
C2857      C2862   1.414       .  A
C2858      C2859   1.409       .  A
C2858     Br2870   1.932       .  S
C2859      C2860   1.410       .  A
C2859     Br2874   1.931       .  S
C2860      C2863   1.487       .  S
C2860      C2861   1.408       .  A
C2861      C2862   1.407       .  A
C2861     Br2869   1.931       .  S
C2862     Br2873   1.930       .  S
C2863      C2864   1.409       .  A
C2863      C2868   1.409       .  A
C2864      C2865   1.406       .  A
C2864     Br2875   1.931       .  S
C2865      C2866   1.414       .  A
C2865     Br2871   1.933       .  S
C2866      C2867   1.414       .  A
C2867      C2868   1.409       .  A
C2867     Br2876   1.931       .  S
C2868     Br2872   1.930       .  S
C2877      C2878   1.411       .  A
C2877      C2882   1.412       .  A
C2878      C2879   1.408       .  A
C2878     Br2890   1.930       .  S
C2879      C2880   1.408       .  A
C2879     Br2894   1.928       .  S
C2880      C2883   1.485       .  S
C2880      C2881   1.409       .  A
C2881      C2882   1.408       .  A
C2881     Br2889   1.931       .  S
C2882     Br2893   1.932       .  S
C2883      C2884   1.407       .  A
C2883      C2888   1.406       .  A
C2884      C2885   1.408       .  A
C2884     Br2895   1.932       .  S
C2885      C2886   1.416       .  A
C2885     Br2891   1.931       .  S
C2886      C2887   1.418       .  A
C2887      C2888   1.409       .  A
C2887     Br2896   1.929       .  S
C2888     Br2892   1.931       .  S
C2897      C2898   1.413       .  A
C2897      C2902   1.413       .  A
C2898      C2899   1.408       .  A
C2899      C2900   1.408       .  A
C2899     Br2914   1.929       .  S
C2900      C2903   1.483       .  S
C2900      C2901   1.408       .  A
C2901      C2902   1.406       .  A
C2901     Br2909   1.931       .  S
C2902     Br2913   1.931       .  S
C2903      C2904   1.407       .  A
C2903      C2908   1.408       .  A
C2904      C2905   1.407       .  A
C2905      C2906   1.414       .  A
C2905     Br2911   1.931       .  S
C2906      C2907   1.414       .  A
C2907      C2908   1.409       .  A
C2907     Br2916   1.931       .  S
C2908     Br2912   1.930       .  S
C2917      C2918   1.415       .  A
C2917      C2922   1.416       .  A
C2918      C2919   1.409       .  A
C2918     Br2930   1.931       .  S
C2919      C2920   1.407       .  A
C2919     Br2934   1.929       .  S
C2920      C2923   1.486       .  S
C2920      C2921   1.408       .  A
C2921      C2922   1.408       .  A
C2921     Br2929   1.932       .  S
C2922     Br2933   1.933       .  S
C2923      C2924   1.407       .  A
C2923      C2928   1.408       .  A
C2924      C2925   1.407       .  A
C2924     Br2935   1.933       .  S
C2925      C2926   1.417       .  A
C2925     Br2931   1.933       .  S
C2926      C2927   1.416       .  A
C2927      C2928   1.410       .  A
C2927     Br2936   1.932       .  S
C2928     Br2932   1.928       .  S
C2937      C2938   1.413       .  A
C2937      C2942   1.412       .  A
C2938      C2939   1.407       .  A
C2938     Br2950   1.930       .  S
C2939      C2940   1.407       .  A
C2939     Br2954   1.929       .  S
C2940      C2943   1.479       .  S
C2940      C2941   1.407       .  A
C2941      C2942   1.405       .  A
C2941     Br2949   1.932       .  S
C2942     Br2953   1.930       .  S
C2943      C2944   1.407       .  A
C2943      C2948   1.406       .  A
C2944      C2945   1.408       .  A
C2944     Br2955   1.931       .  S
C2945      C2946   1.414       .  A
C2945     Br2951   1.931       .  S
C2946      C2947   1.413       .  A
C2947      C2948   1.404       .  A
C2947     Br2956   1.933       .  S
C2948     Br2952   1.931       .  S
C2957      C2958   1.413       .  A
C2957      C2962   1.414   1_554  A
C2958      C2959   1.405   1_554  A
C2958     Br2970   1.932       .  S
C2959      C2960   1.408       .  A
C2959     Br2974   1.932       .  S
C2960      C2963   1.483       .  S
C2960      C2961   1.409       .  A
C2961      C2962   1.409       .  A
C2961     Br2969   1.931       .  S
C2963      C2964   1.409       .  A
C2963      C2968   1.407       .  A
C2964      C2965   1.409       .  A
C2964     Br2975   1.930       .  S
C2965      C2966   1.415       .  A
C2965     Br2971   1.931       .  S
C2966      C2967   1.416       .  A
C2967      C2968   1.405       .  A
C2967     Br2976   1.935       .  S
C2968     Br2972   1.932       .  S
C2977      C2978   1.415       .  A
C2977      C2982   1.419       .  A
C2978      C2979   1.409       .  A
C2978     Br2990   1.930       .  S
C2979      C2980   1.407       .  A
C2979     Br2994   1.930       .  S
C2980      C2983   1.484       .  S
C2980      C2981   1.406       .  A
C2981      C2982   1.407       .  A
C2981     Br2989   1.933       .  S
C2982     Br2993   1.932       .  S
C2983      C2984   1.405       .  A
C2983      C2988   1.407       .  A
C2984      C2985   1.408       .  A
C2984     Br2995   1.931       .  S
C2985      C2986   1.420       .  A
C2985     Br2991   1.934       .  S
C2986      C2987   1.419       .  A
C2987      C2988   1.408       .  A
C2987     Br2996   1.933       .  S
C2988     Br2992   1.933       .  S
C2997      C2998   1.411       .  A
C2997      C3002   1.412       .  A
C2998      C2999   1.410       .  A
C2998     Br3010   1.930       .  S
C2999      C3000   1.410       .  A
C2999     Br3014   1.929       .  S
C3000      C3003   1.484       .  S
C3000      C3001   1.407       .  A
C3001      C3002   1.405       .  A
C3001     Br3009   1.930       .  S
C3002     Br3013   1.932       .  S
C3003      C3004   1.408       .  A
C3003      C3008   1.408       .  A
C3004      C3005   1.409       .  A
C3004     Br3015   1.932       .  S
C3005      C3006   1.415       .  A
C3005     Br3011   1.931       .  S
C3006      C3007   1.413       .  A
C3007      C3008   1.408       .  A
C3007     Br3016   1.930       .  S
C3008     Br3012   1.930       .  S
C3017      C3018   1.418       .  A
C3017      C3022   1.416       .  A
C3018      C3019   1.406       .  A
C3018     Br3030   1.932       .  S
C3019      C3020   1.405       .  A
C3019     Br3034   1.933       .  S
C3020      C3023   1.483       .  S
C3020      C3021   1.407       .  A
C3021      C3022   1.410       .  A
C3021     Br3029   1.931       .  S
C3022     Br3033   1.931       .  S
C3023      C3024   1.408       .  A
C3023      C3028   1.409       .  A
C3024      C3025   1.407       .  A
C3024     Br3035   1.929       .  S
C3025      C3026   1.412       .  A
C3025     Br3031   1.931       .  S
C3026      C3027   1.413       .  A
C3027      C3028   1.407       .  A
C3027     Br3036   1.932       .  S
C3028     Br3032   1.932       .  S
C3037      C3038   1.413       .  A
C3037      C3042   1.412       .  A
C3038      C3039   1.408       .  A
C3038     Br3050   1.930       .  S
C3039      C3040   1.408       .  A
C3039     Br3054   1.929       .  S
C3040      C3043   1.483       .  S
C3040      C3041   1.408       .  A
C3041      C3042   1.406       .  A
C3041     Br3049   1.930       .  S
C3042     Br3053   1.932       .  S
C3043      C3044   1.409       .  A
C3043      C3048   1.409       .  A
C3044      C3045   1.406       .  A
C3044     Br3055   1.931       .  S
C3045      C3046   1.410       .  A
C3045     Br3051   1.930       .  S
C3046      C3047   1.411       .  A
C3047      C3048   1.409       .  A
C3047     Br3056   1.929       .  S
C3048     Br3052   1.929       .  S
C3057      C3058   1.415       .  A
C3057      C3062   1.414       .  A
C3058      C3059   1.409       .  A
C3058     Br3070   1.931       .  S
C3059      C3060   1.408       .  A
C3059     Br3074   1.932       .  S
C3060      C3063   1.487       .  S
C3060      C3061   1.409       .  A
C3061      C3062   1.410       .  A
C3061     Br3069   1.931       .  S
C3063      C3064   1.409       .  A
C3063      C3068   1.409       .  A
C3064      C3065   1.408       .  A
C3065      C3066   1.413       .  A
C3065     Br3071   1.931       .  S
C3066      C3067   1.414       .  A
C3067      C3068   1.408       .  A
C3067     Br3076   1.930       .  S
C3068     Br3072   1.931       .  S
C3077      C3078   1.412       .  A
C3077      C3082   1.412       .  A
C3078      C3079   1.409       .  A
C3078     Br3090   1.928       .  S
C3079      C3080   1.408       .  A
C3079     Br3094   1.929       .  S
C3080      C3083   1.485   1_545  S
C3080      C3081   1.409       .  A
C3081      C3082   1.407       .  A
C3081     Br3089   1.931       .  S
C3082     Br3093   1.932       .  S
C3083      C3084   1.408       .  A
C3083      C3088   1.407       .  A
C3084      C3085   1.409       .  A
C3084     Br3095   1.929   1_565  S
C3085      C3086   1.413       .  A
C3085     Br3091   1.930       .  S
C3086      C3087   1.416       .  A
C3087      C3088   1.407       .  A
C3087     Br3096   1.933       .  S
C3088     Br3092   1.931       .  S
C3097      C3098   1.418       .  A
C3097      C3102   1.417       .  A
C3098      C3099   1.410       .  A
C3098     Br3110   1.933       .  S
C3099      C3100   1.407       .  A
C3099     Br3114   1.930       .  S
C3100      C3103   1.485   1_545  S
C3100      C3101   1.407       .  A
C3101      C3102   1.408       .  A
C3101     Br3109   1.932   1_545  S
C3102     Br3113   1.932       .  S
C3103      C3104   1.408       .  A
C3103      C3108   1.408       .  A
C3104      C3105   1.409       .  A
C3104     Br3115   1.928       .  S
C3105      C3106   1.413       .  A
C3105     Br3111   1.930       .  S
C3106      C3107   1.415       .  A
C3107      C3108   1.407       .  A
C3107     Br3116   1.933       .  S
C3108     Br3112   1.933   1_565  S
C3117      C3118   1.411       .  A
C3117      C3122   1.411       .  A
C3118      C3119   1.403       .  A
C3118     Br3130   1.932       .  S
C3119      C3120   1.407       .  A
C3119     Br3134   1.932       .  S
C3120      C3123   1.481       .  S
C3120      C3121   1.409       .  A
C3121      C3122   1.410       .  A
C3121     Br3129   1.928       .  S
C3122     Br3133   1.929       .  S
C3123      C3124   1.409       .  A
C3123      C3128   1.407       .  A
C3124      C3125   1.406       .  A
C3124     Br3135   1.930       .  S
C3125      C3126   1.410   1_556  A
C3125     Br3131   1.930       .  S
C3127     Br3136   1.929       .  S
C3128     Br3132   1.930       .  S
C3137      C3138   1.415       .  A
C3137      C3142   1.413       .  A
C3138      C3139   1.409       .  A
C3138     Br3150   1.931       .  S
C3139      C3140   1.407       .  A
C3139     Br3154   1.930       .  S
C3140      C3143   1.484       .  S
C3140      C3141   1.409       .  A
C3141      C3142   1.408       .  A
C3141     Br3149   1.931       .  S
C3142     Br3153   1.931       .  S
C3143      C3144   1.409       .  A
C3143      C3148   1.409       .  A
C3144      C3145   1.406       .  A
C3144     Br3155   1.931       .  S
C3145      C3146   1.410       .  A
C3145     Br3151   1.931       .  S
C3146      C3147   1.410       .  A
C3147      C3148   1.408       .  A
C3147     Br3156   1.930       .  S
C3148     Br3152   1.928       .  S
C3157      C3158   1.411       .  A
C3157      C3162   1.415       .  A
C3158      C3159   1.406       .  A
C3158     Br3170   1.930       .  S
C3159      C3160   1.408       .  A
C3159     Br3174   1.930       .  S
C3160      C3163   1.485       .  S
C3160      C3161   1.409       .  A
C3161      C3162   1.410       .  A
C3161     Br3169   1.929       .  S
C3162     Br3173   1.932       .  S
C3163      C3164   1.409       .  A
C3163      C3168   1.409       .  A
C3164      C3165   1.406       .  A
C3164     Br3175   1.931       .  S
C3165      C3166   1.412       .  A
C3165     Br3171   1.933       .  S
C3166      C3167   1.412       .  A
C3167      C3168   1.410       .  A
C3167     Br3176   1.928       .  S
C3168     Br3172   1.929       .  S
C3177      C3178   1.410       .  A
C3177      C3182   1.410       .  A
C3178      C3179   1.405       .  A
C3178     Br3190   1.931       .  S
C3179      C3180   1.408       .  A
C3179     Br3194   1.930       .  S
C3180      C3183   1.480       .  S
C3180      C3181   1.408       .  A
C3181      C3182   1.407       .  A
C3181     Br3189   1.930       .  S
C3182     Br3193   1.931       .  S
C3183      C3184   1.408       .  A
C3183      C3188   1.407       .  A
C3184      C3185   1.408       .  A
C3184     Br3195   1.929       .  S
C3185      C3186   1.412       .  A
C3185     Br3191   1.929       .  S
C3186      C3187   1.413       .  A
C3187      C3188   1.404       .  A
C3187     Br3196   1.933       .  S
C3188     Br3192   1.931       .  S
C3197      C3198   1.413       .  A
C3197      C3202   1.413       .  A
C3198      C3199   1.408       .  A
C3198     Br3210   1.931       .  S
C3199      C3200   1.409       .  A
C3199     Br3214   1.931       .  S
C3200      C3203   1.486       .  S
C3200      C3201   1.409       .  A
C3201      C3202   1.408       .  A
C3201     Br3209   1.931       .  S
C3202     Br3213   1.930       .  S
C3203      C3204   1.409       .  A
C3203      C3208   1.410       .  A
C3204      C3205   1.406       .  A
C3204     Br3215   1.931       .  S
C3205      C3206   1.412       .  A
C3205     Br3211   1.932       .  S
C3206      C3207   1.413       .  A
C3207      C3208   1.409       .  A
C3207     Br3216   1.931       .  S
C3208     Br3212   1.929       .  S
C3217      C3218   1.413       .  A
C3217      C3222   1.415       .  A
C3218      C3219   1.406       .  A
C3218     Br3230   1.931       .  S
C3219      C3220   1.407       .  A
C3219     Br3234   1.930       .  S
C3220      C3223   1.481       .  S
C3220      C3221   1.407       .  A
C3221      C3222   1.407       .  A
C3221     Br3229   1.932       .  S
C3222     Br3233   1.931       .  S
C3223      C3224   1.408       .  A
C3223      C3228   1.408       .  A
C3224      C3225   1.409       .  A
C3224     Br3235   1.929       .  S
C3225      C3226   1.412       .  A
C3225     Br3231   1.929       .  S
C3226      C3227   1.412       .  A
C3227      C3228   1.404       .  A
C3227     Br3236   1.933       .  S
C3228     Br3232   1.933       .  S
C3237      C3238   1.411       .  A
C3237      C3242   1.411       .  A
C3238      C3239   1.406       .  A
C3238     Br3250   1.931       .  S
C3239      C3240   1.408       .  A
C3239     Br3254   1.930       .  S
C3240      C3243   1.481       .  S
C3240      C3241   1.408       .  A
C3241      C3242   1.407       .  A
C3241     Br3249   1.930       .  S
C3242     Br3253   1.930       .  S
C3243      C3244   1.409       .  A
C3243      C3248   1.409       .  A
C3244      C3245   1.406       .  A
C3244     Br3255   1.930       .  S
C3245      C3246   1.409       .  A
C3245     Br3251   1.928       .  S
C3246      C3247   1.408       .  A
C3247      C3248   1.406       .  A
C3247     Br3256   1.931       .  S
C3248     Br3252   1.929       .  S
C3257      C3258   1.415       .  A
C3257      C3262   1.413       .  A
C3258      C3259   1.407       .  A
C3258     Br3270   1.932       .  S
C3259      C3260   1.407       .  A
C3260      C3263   1.483       .  S
C3260      C3261   1.408       .  A
C3261      C3262   1.408       .  A
C3261     Br3269   1.929       .  S
C3262     Br3273   1.932       .  S
C3263      C3264   1.408       .  A
C3263      C3268   1.408       .  A
C3264      C3265   1.405       .  A
C3264     Br3275   1.932       .  S
C3265      C3266   1.412       .  A
C3265     Br3271   1.933       .  S
C3266      C3267   1.413       .  A
C3267      C3268   1.409       .  A
C3267     Br3276   1.930       .  S
C3268     Br3272   1.928       .  S
C3277      C3278   1.412       .  A
C3277      C3282   1.413       .  A
C3278     Br3290   1.930       .  S
C3279      C3280   1.408       .  A
C3279     Br3294   1.928       .  S
C3280      C3283   1.483       .  S
C3280      C3281   1.408       .  A
C3281     Br3289   1.932       .  S
C3282     Br3293   1.933       .  S
C3283      C3284   1.408       .  A
C3283      C3288   1.409       .  A
C3284      C3285   1.406       .  A
C3285      C3286   1.410       .  A
C3285     Br3291   1.928       .  S
C3286      C3287   1.412       .  A
C3287      C3288   1.407       .  A
C3287     Br3296   1.932       .  S
C3288     Br3292   1.929       .  S
C3297      C3298   1.411       .  A
C3297      C3302   1.411       .  A
C3298      C3299   1.405       .  A
C3298     Br3310   1.933       .  S
C3299      C3300   1.408       .  A
C3299     Br3314   1.932       .  S
C3300      C3303   1.482       .  S
C3300      C3301   1.408       .  A
C3301      C3302   1.409       .  A
C3301     Br3309   1.928       .  S
C3302     Br3313   1.929       .  S
C3303      C3304   1.408       .  A
C3303      C3308   1.408       .  A
C3304      C3305   1.407       .  A
C3304     Br3315   1.929       .  S
C3305      C3306   1.412       .  A
C3305     Br3311   1.930       .  S
C3306      C3307   1.413       .  A
C3307      C3308   1.406       .  A
C3307     Br3316   1.932       .  S
C3308     Br3312   1.931       .  S
C3317      C3318   1.417       .  A
C3317      C3322   1.417       .  A
C3318      C3319   1.410       .  A
C3318     Br3330   1.933       .  S
C3319      C3320   1.408       .  A
C3319     Br3334   1.930       .  S
C3320      C3323   1.489       .  S
C3320      C3321   1.408       .  A
C3321      C3322   1.409       .  A
C3321     Br3329   1.932       .  S
C3322     Br3333   1.932       .  S
C3323      C3324   1.408       .  A
C3323      C3328   1.410       .  A
C3324      C3325   1.409       .  A
C3324     Br3335   1.928       .  S
C3325      C3326   1.413       .  A
C3325     Br3331   1.930       .  S
C3326      C3327   1.415       .  A
C3327      C3328   1.409       .  A
C3327     Br3336   1.933       .  S
C3328     Br3332   1.932       .  S
C3337      C3338   1.413       .  A
C3337      C3342   1.415       .  A
C3338      C3339   1.408       .  A
C3338     Br3350   1.930       .  S
C3339      C3340   1.409       .  A
C3339     Br3354   1.931       .  S
C3340      C3343   1.488   1_455  S
C3340      C3341   1.410       .  A
C3341      C3342   1.411       .  A
C3341     Br3349   1.931       .  S
C3342     Br3353   1.931       .  S
C3343      C3344   1.408       .  A
C3343      C3348   1.411       .  A
C3344      C3345   1.406       .  A
C3344     Br3355   1.931       .  S
C3345      C3346   1.413       .  A
C3345     Br3351   1.930       .  S
C3346      C3347   1.412       .  A
C3347      C3348   1.411       .  A
C3347     Br3356   1.930       .  S
C3348     Br3352   1.929   1_655  S
C3357      C3358   1.414       .  A
C3357      C3362   1.416       .  A
C3358      C3359   1.410       .  A
C3358     Br3370   1.929       .  S
C3359      C3360   1.408       .  A
C3359     Br3374   1.930       .  S
C3360      C3363   1.487       .  S
C3360      C3361   1.408       .  A
C3361      C3362   1.408       .  A
C3361     Br3369   1.933       .  S
C3362     Br3373   1.934       .  S
C3363      C3364   1.408       .  A
C3363      C3368   1.408       .  A
C3364      C3365   1.410       .  A
C3364     Br3375   1.931       .  S
C3365      C3366   1.419       .  A
C3365     Br3371   1.934       .  S
C3366      C3367   1.415       .  A
C3367      C3368   1.407       .  A
C3377      C3378   1.416       .  A
C3377      C3382   1.416       .  A
C3378      C3379   1.408       .  A
C3378     Br3390   1.932       .  S
C3379      C3380   1.408       .  A
C3379     Br3394   1.933       .  S
C3380      C3383   1.487       .  S
C3380      C3381   1.407       .  A
C3381      C3382   1.409       .  A
C3383      C3384   1.407       .  A
C3383      C3388   1.408       .  A
C3384      C3385   1.407       .  A
C3384     Br3395   1.930       .  S
C3385      C3386   1.416       .  A
C3385     Br3391   1.933       .  S
C3386      C3387   1.418       .  A
C3387      C3388   1.410       .  A
C3387     Br3396   1.931       .  S
C3388     Br3392   1.930       .  S
C3397      C3398   1.414       .  A
C3397      C3402   1.416       .  A
C3398      C3399   1.408       .  A
C3398     Br3410   1.931       .  S
C3399      C3400   1.408       .  A
C3399     Br3414   1.931       .  S
C3400      C3403   1.483       .  S
C3400      C3401   1.406       .  A
C3401      C3402   1.408       .  A
C3401     Br3409   1.931       .  S
C3402     Br3413   1.931       .  S
C3403      C3404   1.407       .  A
C3403      C3408   1.408       .  A
C3404      C3405   1.406       .  A
C3404     Br3415   1.930       .  S
C3405      C3406   1.413       .  A
C3405     Br3411   1.932       .  S
C3406      C3407   1.413       .  A
C3407      C3408   1.408       .  A
C3407     Br3416   1.931       .  S
C3408     Br3412   1.931       .  S
C3417      C3418   1.410       .  A
C3417      C3422   1.409       .  A
C3418      C3419   1.405       .  A
C3418     Br3430   1.932       .  S
C3419      C3420   1.408       .  A
C3419     Br3434   1.930       .  S
C3420      C3423   1.482       .  S
C3420      C3421   1.410       .  A
C3421      C3422   1.409       .  A
C3421     Br3429   1.929       .  S
C3422     Br3433   1.928       .  S
C3423      C3424   1.410       .  A
C3423      C3428   1.407       .  A
C3424      C3425   1.409       .  A
C3424     Br3435   1.929       .  S
C3425      C3426   1.410       .  A
C3425     Br3431   1.930       .  S
C3426      C3427   1.412       .  A
C3427      C3428   1.405       .  A
C3427     Br3436   1.933       .  S
C3428     Br3432   1.931       .  S
C3437      C3438   1.411       .  A
C3437      C3442   1.415       .  A
C3438      C3439   1.406       .  A
C3438     Br3450   1.931       .  S
C3439      C3440   1.410       .  A
C3439     Br3454   1.931       .  S
C3440      C3443   1.485       .  S
C3440      C3441   1.408       .  A
C3441      C3442   1.410       .  A
C3441     Br3449   1.930       .  S
C3442     Br3453   1.931       .  S
C3443      C3448   1.408       .  A
C3444      C3445   1.409   1_554  A
C3444     Br3455   1.930   1_554  S
C3445      C3446   1.414       .  A
C3445     Br3451   1.931       .  S
C3446      C3447   1.411   1_556  A
C3447     Br3456   1.930       .  S
C3448     Br3452   1.930       .  S
C3457      C3458   1.412       .  A
C3457      C3462   1.414       .  A
C3458      C3459   1.409       .  A
C3458     Br3470   1.931       .  S
C3459      C3460   1.409       .  A
C3459     Br3474   1.928       .  S
C3460      C3463   1.484       .  S
C3460      C3461   1.408       .  A
C3461      C3462   1.406       .  A
C3461     Br3469   1.931       .  S
C3462     Br3473   1.933       .  S
C3463      C3464   1.410       .  A
C3463      C3468   1.408       .  A
C3464      C3465   1.409       .  A
C3464     Br3475   1.930       .  S
C3465      C3466   1.412       .  A
C3465     Br3471   1.931       .  S
C3466      C3467   1.410       .  A
C3467      C3468   1.406       .  A
C3467     Br3476   1.928       .  S
C3468     Br3472   1.929       .  S
C3477      C3478   1.413       .  A
C3477      C3482   1.414       .  A
C3478      C3479   1.408       .  A
C3478     Br3490   1.930       .  S
C3479      C3480   1.408       .  A
C3479     Br3494   1.929       .  S
C3480      C3483   1.484       .  S
C3480      C3481   1.408       .  A
C3481      C3482   1.407       .  A
C3482     Br3493   1.930       .  S
C3483      C3484   1.409       .  A
C3483      C3488   1.408       .  A
C3484      C3485   1.410       .  A
C3484     Br3495   1.929       .  S
C3485      C3486   1.413       .  A
C3486      C3487   1.413       .  A
C3487      C3488   1.406       .  A
C3487     Br3496   1.932       .  S
C3488     Br3492   1.931       .  S
C3497      C3498   1.417       .  A
C3497      C3502   1.415       .  A
C3498      C3499   1.408       .  A
C3498     Br3510   1.933       .  S
C3499      C3500   1.407       .  A
C3499     Br3514   1.930       .  S
C3500      C3503   1.486       .  S
C3500      C3501   1.409       .  A
C3501      C3502   1.409       .  A
C3501     Br3509   1.930       .  S
C3502     Br3513   1.932       .  S
C3503      C3504   1.408       .  A
C3503      C3508   1.408       .  A
C3504      C3505   1.407       .  A
C3504     Br3515   1.932       .  S
C3505      C3506   1.414       .  A
C3505     Br3511   1.932       .  S
C3506      C3507   1.414       .  A
C3507      C3508   1.410       .  A
C3507     Br3516   1.929       .  S
C3508     Br3512   1.929       .  S
C3517      C3518   1.414       .  A
C3517      C3522   1.414       .  A
C3518      C3519   1.405       .  A
C3518     Br3530   1.933       .  S
C3519      C3520   1.407       .  A
C3519     Br3534   1.933       .  S
C3520      C3523   1.481       .  S
C3520      C3521   1.407       .  A
C3521      C3522   1.409       .  A
C3521     Br3529   1.929       .  S
C3522     Br3533   1.929       .  S
C3523      C3524   1.408       .  A
C3523      C3528   1.408       .  A
C3524      C3525   1.407       .  A
C3524     Br3535   1.930       .  S
C3525      C3526   1.412       .  A
C3525     Br3531   1.931       .  S
C3526      C3527   1.410       .  A
C3527      C3528   1.406       .  A
C3527     Br3536   1.930       .  S
C3528     Br3532   1.929       .  S
C3537      C3538   1.413       .  A
C3537      C3542   1.415       .  A
C3538      C3539   1.409       .  A
C3538     Br3550   1.931       .  S
C3539      C3540   1.409       .  A
C3539     Br3554   1.930       .  S
C3540      C3543   1.485       .  S
C3540      C3541   1.407       .  A
C3541      C3542   1.407       .  A
C3541     Br3549   1.930       .  S
C3542     Br3553   1.933       .  S
C3543      C3544   1.409       .  A
C3544     Br3555   1.930       .  S
C3545      C3546   1.411       .  A
C3545     Br3551   1.932       .  S
C3546      C3547   1.411       .  A
C3547      C3548   1.409       .  A
C3547     Br3556   1.928       .  S
C3548     Br3552   1.929       .  S
C3557      C3558   1.408       .  A
C3557      C3562   1.408       .  A
C3558      C3559   1.406       .  A
C3558     Br3570   1.929       .  S
C3559      C3560   1.409       .  A
C3559     Br3574   1.929       .  S
C3560      C3563   1.483       .  S
C3560      C3561   1.410       .  A
C3561      C3562   1.408       .  A
C3561     Br3569   1.929       .  S
C3562     Br3573   1.929       .  S
C3563      C3564   1.408   1_565  A
C3563      C3568   1.408   1_565  A
C3564      C3565   1.407       .  A
C3564     Br3575   1.931   1_545  S
C3565      C3566   1.412       .  A
C3565     Br3571   1.931       .  S
C3566      C3567   1.413       .  A
C3567      C3568   1.408       .  A
C3567     Br3576   1.928       .  S
C3568     Br3572   1.930   1_545  S
C3577      C3578   1.414       .  A
C3577      C3582   1.416       .  A
C3578      C3579   1.408       .  A
C3578     Br3590   1.932       .  S
C3579      C3580   1.408       .  A
C3579     Br3594   1.930       .  S
C3580      C3583   1.486       .  S
C3580      C3581   1.408       .  A
C3581      C3582   1.408       .  A
C3581     Br3589   1.931   1_556  S
C3582     Br3593   1.931       .  S
C3583      C3584   1.409       .  A
C3583      C3588   1.409       .  A
C3584      C3585   1.409       .  A
C3584     Br3595   1.928       .  S
C3585      C3586   1.411       .  A
C3586      C3587   1.412       .  A
C3587      C3588   1.407       .  A
C3587     Br3596   1.933       .  S
C3588     Br3592   1.931       .  S
C3597      C3598   1.415       .  A
C3597      C3602   1.415       .  A
C3598      C3599   1.406       .  A
C3598     Br3610   1.931       .  S
C3599      C3600   1.407       .  A
C3599     Br3614   1.932       .  S
C3600      C3603   1.482       .  S
C3600      C3601   1.407       .  A
C3601      C3602   1.408       .  A
C3601     Br3609   1.930       .  S
C3602     Br3613   1.932       .  S
C3603      C3604   1.408       .  A
C3603      C3608   1.408       .  A
C3604      C3605   1.404       .  A
C3604     Br3615   1.931       .  S
C3605      C3606   1.411       .  A
C3605     Br3611   1.932       .  S
C3606      C3607   1.411       .  A
C3607      C3608   1.409       .  A
C3607     Br3616   1.925       .  S
C3608     Br3612   1.929       .  S
C3617      C3618   1.412       .  A
C3617      C3622   1.411       .  A
C3618     Br3630   1.929       .  S
C3619      C3620   1.407       .  A
C3619     Br3634   1.932       .  S
C3620      C3623   1.483       .  S
C3620      C3621   1.409       .  A
C3621     Br3629   1.929       .  S
C3622     Br3633   1.928       .  S
C3623      C3624   1.408       .  A
C3623      C3628   1.407       .  A
C3624      C3625   1.407       .  A
C3625      C3626   1.413       .  A
C3625     Br3631   1.932       .  S
C3626      C3627   1.414       .  A
C3627      C3628   1.407       .  A
C3627     Br3636   1.932       .  S
C3628     Br3632   1.930       .  S
C3637      C3638   1.414       .  A
C3637      C3642   1.414       .  A
C3638      C3639   1.411       .  A
C3638     Br3650   1.930       .  S
C3639      C3640   1.409       .  A
C3639     Br3654   1.929       .  S
C3640      C3643   1.485       .  S
C3640      C3641   1.407       .  A
C3641      C3642   1.405       .  A
C3641     Br3649   1.932       .  S
C3642     Br3653   1.931       .  S
C3643      C3644   1.409       .  A
C3643      C3648   1.408       .  A
C3644      C3645   1.408       .  A
C3644     Br3655   1.930       .  S
C3645      C3646   1.414       .  A
C3645     Br3651   1.931       .  S
C3646      C3647   1.414       .  A
C3647      C3648   1.408       .  A
C3647     Br3656   1.932       .  S
C3648     Br3652   1.931       .  S
C3657      C3658   1.411       .  A
C3657      C3662   1.412       .  A
C3658      C3659   1.407       .  A
C3658     Br3670   1.932       .  S
C3659      C3660   1.409       .  A
C3659     Br3674   1.929   1_655  S
C3660      C3663   1.486   1_655  S
C3660      C3661   1.409       .  A
C3661      C3662   1.409       .  A
C3661     Br3669   1.930       .  S
C3662     Br3673   1.929       .  S
C3663      C3664   1.410       .  A
C3663      C3668   1.408       .  A
C3664      C3665   1.409       .  A
C3664     Br3675   1.930   1_455  S
C3665      C3666   1.411       .  A
C3665     Br3671   1.930       .  S
C3666      C3667   1.412       .  A
C3667      C3668   1.407       .  A
C3667     Br3676   1.932       .  S
C3668     Br3672   1.929       .  S
C3677      C3678   1.412       .  A
C3677      C3682   1.411       .  A
C3678      C3679   1.405       .  A
C3678     Br3690   1.932       .  S
C3679      C3680   1.407       .  A
C3679     Br3694   1.931       .  S
C3680      C3683   1.482       .  S
C3680      C3681   1.409       .  A
C3681      C3682   1.409       .  A
C3681     Br3689   1.929       .  S
C3682     Br3693   1.930       .  S
C3683      C3684   1.409       .  A
C3683      C3688   1.408       .  A
C3684      C3685   1.408       .  A
C3684     Br3695   1.928       .  S
C3685      C3686   1.409       .  A
C3685     Br3691   1.929       .  S
C3686      C3687   1.412       .  A
C3687      C3688   1.405       .  A
C3687     Br3696   1.933       .  S
C3688     Br3692   1.931       .  S
C3697      C3698   1.412   1_556  A
C3697      C3702   1.413       .  A
C3698     Br3710   1.928       .  S
C3699      C3700   1.407       .  A
C3699     Br3714   1.933       .  S
C3700      C3703   1.480       .  S
C3701      C3702   1.408   1_554  A
C3701     Br3709   1.929       .  S
C3702     Br3713   1.930       .  S
C3703      C3704   1.406       .  A
C3703      C3708   1.408       .  A
C3704      C3705   1.407       .  A
C3704     Br3715   1.930       .  S
C3705      C3706   1.416       .  A
C3705     Br3711   1.933       .  S
C3706      C3707   1.413       .  A
C3707      C3708   1.405       .  A
C3707     Br3716   1.932       .  S
C3708     Br3712   1.931       .  S
C3717      C3718   1.417       .  A
C3717      C3722   1.415       .  A
C3718      C3719   1.407       .  A
C3718     Br3730   1.933       .  S
C3719      C3720   1.407       .  A
C3719     Br3734   1.933       .  S
C3720      C3723   1.486       .  S
C3720      C3721   1.408       .  A
C3721      C3722   1.410       .  A
C3721     Br3729   1.929       .  S
C3722     Br3733   1.930       .  S
C3723      C3724   1.407       .  A
C3723      C3728   1.407       .  A
C3724      C3725   1.409       .  A
C3724     Br3735   1.932       .  S
C3725      C3726   1.418       .  A
C3725     Br3731   1.933       .  S
C3726      C3727   1.418       .  A
C3727      C3728   1.408       .  A
C3727     Br3736   1.933       .  S
C3728     Br3732   1.930       .  S
C3737      C3738   1.414       .  A
C3737      C3742   1.415       .  A
C3739      C3740   1.408       .  A
C3739     Br3754   1.931       .  S
C3740      C3743   1.481       .  S
C3741      C3742   1.406       .  A
C3741     Br3749   1.930       .  S
C3742     Br3753   1.933       .  S
C3743      C3744   1.408       .  A
C3743      C3748   1.406       .  A
C3744      C3745   1.406       .  A
C3744     Br3755   1.931       .  S
C3745      C3746   1.413       .  A
C3745     Br3751   1.932       .  S
C3746      C3747   1.414       .  A
C3747      C3748   1.407       .  A
C3747     Br3756   1.930       .  S
C3748     Br3752   1.930       .  S
C3757      C3758   1.413       .  A
C3757      C3762   1.414       .  A
C3758      C3759   1.408       .  A
C3758     Br3770   1.930       .  S
C3759      C3760   1.408       .  A
C3759     Br3774   1.931       .  S
C3760      C3763   1.477       .  S
C3760      C3761   1.405       .  A
C3761      C3762   1.403       .  A
C3761     Br3769   1.932       .  S
C3762     Br3773   1.933       .  S
C3763      C3764   1.407       .  A
C3763      C3768   1.408       .  A
C3764      C3765   1.407       .  A
C3764     Br3775   1.929       .  S
C3765      C3766   1.412       .  A
C3765     Br3771   1.928       .  S
C3766      C3767   1.411       .  A
C3767      C3768   1.403       .  A
C3767     Br3776   1.933       .  S
C3768     Br3772   1.932       .  S
C3777      C3778   1.411       .  A
C3777      C3782   1.413       .  A
C3778      C3779   1.408       .  A
C3778     Br3790   1.930       .  S
C3779      C3780   1.409       .  A
C3779     Br3794   1.930   1_545  S
C3780      C3783   1.487   1_545  S
C3780      C3781   1.408       .  A
C3781      C3782   1.409       .  A
C3781     Br3789   1.929       .  S
C3782     Br3793   1.930       .  S
C3783      C3784   1.407       .  A
C3783      C3788   1.409       .  A
C3784      C3785   1.408       .  A
C3784     Br3795   1.930       .  S
C3785      C3786   1.415       .  A
C3785     Br3791   1.930       .  S
C3786      C3787   1.413       .  A
C3787      C3788   1.409       .  A
C3787     Br3796   1.930       .  S
C3788     Br3792   1.930       .  S
C3797      C3798   1.415       .  A
C3797      C3802   1.416       .  A
C3798      C3799   1.407       .  A
C3799      C3800   1.407       .  A
C3800      C3803   1.484       .  S
C3800      C3801   1.407       .  A
C3801      C3802   1.408       .  A
C3801     Br3809   1.931       .  S
C3802     Br3813   1.932       .  S
C3803      C3804   1.408       .  A
C3803      C3808   1.408       .  A
C3804      C3805   1.406       .  A
C3804     Br3815   1.934       .  S
C3805      C3806   1.415       .  A
C3805     Br3811   1.933       .  S
C3806      C3807   1.413       .  A
C3807      C3808   1.410       .  A
C3807     Br3816   1.929       .  S
C3808     Br3812   1.928       .  S
