geometry optimzed in LAMMPS
_audit_creation_date              2020-12-01 
_audit_creation_method            'lammps2cif' 
_symmetry_space_group_name_H-M    'P1' 
_symmetry_Int_Tables_number       1 
_symmetry_cell_setting            triclinic 
loop_ 
_symmetry_equiv_pos_as_xyz 
  x,y,z 
_cell_length_a                    27.38315997 
_cell_length_b                    27.286533298590932 
_cell_length_c                    27.33385802553748 
_cell_angle_alpha                 91.21369015602107 
_cell_angle_beta                  88.60211694037409 
_cell_angle_gamma                 89.36551706607672 
loop_ 
_atom_site_label 
_atom_site_type_symbol 
_atom_site_fract_x 
_atom_site_fract_y 
_atom_site_fract_z 
_atom_site_charge 
N1          N  0.05857425  0.06047272  0.09059106    -0.06900
N2          N  0.09085488  0.07262141  0.12434005    -0.59000
N3          N  0.94562853  0.09564886  0.05882277    -0.06600
N4          N  0.91356050  0.13086263  0.06943409    -0.61100
N5          N  0.94504646  0.06277532  0.09342274    -0.06200
N6          N  0.91230315  0.07533519  0.12827690    -0.59000
N7          N  0.05865726  0.09290831  0.05562259    -0.05800
N8          N  0.09101080  0.12708659  0.06470806    -0.61500
C9          C  0.11144399  0.11424841  0.10733282     0.95300
C10         C  0.89251007  0.11782897  0.11247498     0.95100
N11         N  0.94372328  0.06367193  0.90662229    -0.07100
N12         N  0.91338663  0.07781430  0.87227968    -0.59600
N13         N  0.05728089  0.09372026  0.93899634    -0.05200
N14         N  0.09140333  0.12641200  0.92970129    -0.60800
N15         N  0.05636861  0.06018819  0.90364966    -0.07100
N16         N  0.09008609  0.06949352  0.86960498    -0.59900
N17         N  0.94540142  0.09727617  0.94185871    -0.04800
N18         N  0.91657769  0.13470289  0.93197731    -0.60900
Mn19       Mn  0.00171836  0.09543343  0.99903166     1.18400
C20         C  0.89623570  0.12211325  0.88888918     0.97400
C21         C  0.11150308  0.11095660  0.88633335     0.98000
N22         N  0.94474307  0.94568382  0.09174009    -0.07100
N23         N  0.91257337  0.93655979  0.12718325    -0.63400
N24         N  0.05543275  0.90992714  0.05175263    -0.05900
N25         N  0.08625389  0.87402941  0.06075323    -0.64100
N26         N  0.05653866  0.94364701  0.08697878    -0.06600
N27         N  0.08817615  0.93102176  0.12051083    -0.63700
N28         N  0.94361847  0.91125144  0.05716470    -0.05500
N29         N  0.91079126  0.87787967  0.06888324    -0.64400
Mn30       Mn  0.00121940  0.00316609  0.09179466     1.10700
C31         C  0.89187827  0.89412109  0.11265392     0.98600
C32         C  0.10685385  0.88770179  0.10334789     0.98700
N33         N  0.05370288  0.94269052  0.90162726    -0.06600
N34         N  0.08409848  0.93129471  0.86493025    -0.62000
N35         N  0.94174456  0.91119417  0.93822120    -0.06000
N36         N  0.90855893  0.87784912  0.92779536    -0.58700
N37         N  0.94180554  0.94566215  0.90505709    -0.07300
N38         N  0.90863443  0.93641966  0.87174603    -0.61600
N39         N  0.05422827  0.90801728  0.93446513    -0.06300
N40         N  0.08532370  0.87239277  0.92036848    -0.58800
Mn41       Mn  0.99878382  0.00295058  0.90344293     1.20200
Mn42       Mn  0.99862299  0.90900317  0.99542677     1.10100
Cl43       Cl  0.99992351  0.00256473  0.99735399    -0.86700
C44         C  0.10403852  0.88771912  0.87695205     0.95600
C45         C  0.88811991  0.89415534  0.88641029     0.95400
C46         C  0.76535607  0.84225928  0.84481192     0.85700
C47         C  0.78305392  0.79157555  0.86122017    -0.54500
C48         C  0.83118224  0.78158317  0.85063816     0.08600
C49         C  0.85778502  0.82393995  0.82493843     0.19600
C50         C  0.80065503  0.87801083  0.87019617    -0.55200
C51         C  0.84886960  0.86840393  0.86005629     0.08700
C52         C  0.77899931  0.84373838  0.79028689    -0.54800
C53         C  0.82717753  0.83410129  0.77917533     0.09300
H54         H  0.75950822  0.76569676  0.87966136     0.13800
H55         H  0.89710550  0.81646423  0.81681455    -0.00400
H56         H  0.78921325  0.90636757  0.89657239     0.14100
H57         H  0.75250628  0.85269915  0.76283466     0.13900
C58         C  0.76667512  0.85307170  0.16201366     0.85700
C59         C  0.80430357  0.88522164  0.13514025    -0.54500
C60         C  0.85152659  0.87026038  0.13988148     0.08600
C61         C  0.85734329  0.82460462  0.17195611     0.19600
C62         C  0.77791532  0.80086447  0.14147473    -0.55200
C63         C  0.82508616  0.78549501  0.14740249     0.08700
C64         C  0.78292131  0.85226163  0.21503988    -0.54800
C65         C  0.83003373  0.83713357  0.22093217     0.09300
H66         H  0.79514525  0.91545242  0.11185089     0.13800
H67         H  0.89593887  0.81284533  0.17614403    -0.00400
H68         H  0.75048965  0.77745396  0.12542388     0.14100
H69         H  0.75880448  0.86318629  0.24559615     0.13900
N70         N  0.55905955  0.87693586  0.01512566    -0.37400
N71         N  0.48597021  0.85478278  0.94292694    -0.57900
N72         N  0.41227776  0.86311789  0.02135913    -0.37400
N73         N  0.48578914  0.87880463  0.09442914    -0.57900
C74         C  0.58680740  0.86278035  0.97555003     0.26200
C75         C  0.58696322  0.87105148  0.05480676     0.26200
C76         C  0.38606228  0.84296281  0.98487789     0.26200
C77         C  0.38579310  0.85841912  0.06335951     0.26200
C78         C  0.52397790  0.86296734  0.91191055     0.34800
C79         C  0.44562890  0.85341000  0.91562153     0.34800
C80         C  0.52507499  0.89042967  0.12088819     0.34800
C81         C  0.44610870  0.88788268  0.12353413     0.34800
C82         C  0.63275308  0.84821520  0.99016972    -0.22700
C83         C  0.63279530  0.85312339  0.03996296    -0.22700
C84         C  0.34244460  0.82530485  0.00407262    -0.22700
C85         C  0.34241375  0.83474546  0.05338792    -0.22700
C86         C  0.50803562  0.86592091  0.86439010    -0.23700
C87         C  0.45817169  0.85974280  0.86671000    -0.23700
C88         C  0.51049678  0.90630776  0.16751569    -0.23700
C89         C  0.46015716  0.90493738  0.16912270    -0.23700
C90         C  0.57298203  0.86463995  0.92616911    -0.19100
C91         C  0.57371156  0.88378912  0.10393684    -0.19100
C92         C  0.39790454  0.87755442  0.11008282    -0.19100
C93         C  0.39817497  0.84422900  0.93430713    -0.19100
H94         H  0.66325344  0.83515702  0.96737774     0.13800
H95         H  0.66352213  0.84451426  0.06248920     0.13800
H96         H  0.31290913  0.80816680  0.98485148     0.13800
H97         H  0.31316621  0.82566328  0.07880263     0.13800
H98         H  0.53006111  0.87139988  0.83158771     0.12100
H99         H  0.43402900  0.85956025  0.83594654     0.12100
H100        H  0.53368593  0.91727153  0.19722769     0.12100
H101        H  0.43669373  0.91439863  0.20041930     0.12100
H102        H  0.52434721  0.89254343  0.01465354     0.25400
H103        H  0.44445518  0.88241899  0.01735738     0.25400
C104        C  0.84233589  0.23982477  0.83516679     0.85700
C105        C  0.85406950  0.22213128  0.78219281    -0.54500
C106        C  0.84786605  0.17318132  0.77423672     0.08600
C107        C  0.83005564  0.14551947  0.82013994     0.19600
C108        C  0.78992807  0.22293138  0.84487602    -0.55200
C109        C  0.78262518  0.17370317  0.83707764     0.08700
C110        C  0.87374959  0.20690735  0.86700576    -0.54800
C111        C  0.86774663  0.15774294  0.85984479     0.09300
H112        H  0.86586092  0.24516800  0.75255211     0.13800
H113        H  0.82512711  0.10564406  0.81340207    -0.00400
H114        H  0.76144885  0.24803893  0.85842731     0.14100
H115        H  0.89912392  0.22174588  0.89329354     0.13900
N116        N  0.87665015  0.98126677  0.42602567    -0.37400
N117        N  0.87414761  0.90535346  0.49948240    -0.57900
N118        N  0.87546539  0.98343487  0.57291311    -0.37400
N119        N  0.87180501  0.05939359  0.49957396    -0.57900
C120        C  0.86233079  0.94095911  0.40077157     0.26200
C121        C  0.86101963  0.02048122  0.40092475     0.26200
C122        C  0.86124126  0.94426813  0.59909881     0.26200
C123        C  0.86062921  0.02381919  0.59905165     0.26200
C124        C  0.88191668  0.87623004  0.45938169     0.34800
C125        C  0.88081130  0.87738505  0.53906027     0.34800
C126        C  0.88000335  0.08692941  0.45971967     0.34800
C127        C  0.87979966  0.08814417  0.53937097     0.34800
C128        C  0.83666200  0.95482488  0.36003058    -0.22700
C129        C  0.83564611  0.00490207  0.36028078    -0.22700
C130        C  0.83649597  0.96008215  0.64156200    -0.22700
C131        C  0.83608495  0.01014669  0.64149458    -0.22700
C132        C  0.89312854  0.82899667  0.47340475    -0.23700
C133        C  0.89238678  0.82972234  0.52413309    -0.23700
C134        C  0.89304154  0.13388755  0.47419315    -0.18600
C135        C  0.89283360  0.13467476  0.52488297    -0.23700
C136        C  0.87507525  0.89195115  0.41099798    -0.19100
C137        C  0.87249599  0.06992748  0.41118491    -0.19100
C138        C  0.87214371  0.07276183  0.58807280    -0.19100
C139        C  0.87298279  0.89461865  0.58788570    -0.19100
H140        H  0.82062801  0.93131155  0.33254786     0.13800
H141        H  0.81870392  0.02737395  0.33312508     0.13800
H142        H  0.82071902  0.93786172  0.67007501     0.13800
H143        H  0.82004504  0.03388546  0.66991953     0.13800
H144        H  0.90004171  0.79730314  0.44967080     0.12100
H145        H  0.89870168  0.79871550  0.54728913     0.12100
H146        H  0.90117321  0.16441163  0.45082751     0.12100
H147        H  0.90069351  0.16592458  0.54830977     0.12100
H148        H  0.89925462  0.98189473  0.45612774     0.25400
H149        H  0.89742833  0.98276455  0.54126850     0.25400
C150        C  0.83754910  0.23554594  0.17093888     0.85700
C151        C  0.86746784  0.20199604  0.13591594    -0.54500
C152        C  0.86207374  0.15307333  0.14276426     0.08600
C153        C  0.82560489  0.14157167  0.18518214     0.19600
C154        C  0.78476581  0.21865769  0.16557088    -0.55200
C155        C  0.77746343  0.16966454  0.17342642     0.08700
C156        C  0.85109075  0.21895718  0.22258587    -0.54800
C157        C  0.84518436  0.17006159  0.23002559     0.09300
H158        H  0.89235409  0.21640257  0.10829868     0.13800
H159        H  0.82095679  0.10182156  0.19147583    -0.00400
H160        H  0.75582423  0.24372765  0.15554744     0.14100
H161        H  0.86347151  0.24285896  0.25171111     0.13900
N162        N  0.43574755  0.11591102  0.01142995    -0.37400
N163        N  0.51401995  0.11311257  0.93602759    -0.57900
N164        N  0.58484120  0.10567280  0.01316242    -0.37400
N165        N  0.50602101  0.11565675  0.08912810    -0.57900
C166        C  0.41148178  0.12871777  0.97096494     0.26200
C167        C  0.40706445  0.12957833  0.05061882     0.26200
C168        C  0.61387488  0.11680298  0.97395153     0.26200
C169        C  0.60993976  0.11763533  0.05381044     0.26200
C170        C  0.47531201  0.10960127  0.90646813     0.34800
C171        C  0.55448493  0.10589749  0.90732170     0.34800
C172        C  0.46471698  0.11299331  0.11743853     0.34800
C173        C  0.54447090  0.10866761  0.11858816     0.34800
C174        C  0.36718579  0.15080243  0.98470530    -0.22700
C175        C  0.36449469  0.15150460  0.03468309    -0.22700
C176        C  0.65762942  0.13554549  0.99006754    -0.22700
C177        C  0.65515302  0.13618652  0.03995892    -0.22700
C178        C  0.49116683  0.10029182  0.85861596    -0.23700
C179        C  0.54147026  0.09811912  0.85913014    -0.23700
C180        C  0.47700983  0.10468928  0.16543038    -0.23700
C181        C  0.52750689  0.10204832  0.16618663    -0.23700
C182        C  0.42633896  0.11872285  0.92171355    -0.19100
C183        C  0.41655687  0.12080243  0.10045940    -0.19100
C184        C  0.59446682  0.11168321  0.10340065    -0.19100
C185        C  0.60282812  0.11064792  0.92371481    -0.19100
H186        H  0.33930739  0.16489806  0.96121613     0.13800
H187        H  0.33426951  0.16643562  0.05670513     0.13800
H188        H  0.68811079  0.14866244  0.96828937     0.13800
H189        H  0.68348969  0.14998385  0.06325027     0.13800
H190        H  0.46889496  0.09674633  0.82658836     0.12100
H191        H  0.56570857  0.09241046  0.82760700     0.12100
H192        H  0.45225903  0.10162600  0.19666380     0.12100
H193        H  0.54926785  0.09650488  0.19816908     0.12100
H194        H  0.46831081  0.09610538  0.01203791     0.25400
H195        H  0.55086076  0.08914451  0.01242770     0.25400
C196        C  0.16648665  0.83665820  0.75932072     0.85700
C197        C  0.15613027  0.78313078  0.77134495    -0.54500
C198        C  0.15922538  0.77201809  0.81997813     0.08600
C199        C  0.17237185  0.81722579  0.85235499     0.19600
C200        C  0.13181670  0.86712211  0.79268393    -0.55200
C201        C  0.13438613  0.85779023  0.84123052     0.08700
C202        C  0.21735679  0.84565472  0.78014220    -0.54800
C203        C  0.22043637  0.83511983  0.82851973     0.09300
H204        H  0.14920471  0.75642069  0.74254665     0.13800
H205        H  0.17510735  0.81036506  0.89200657    -0.00400
H206        H  0.10727581  0.89473090  0.77855335     0.14100
H207        H  0.24919597  0.85681243  0.75911963     0.13900
N208        N  0.01537970  0.57864315  0.90516300    -0.37400
N209        N  0.93287526  0.51281109  0.90723697    -0.57900
N210        N  0.00484452  0.43383490  0.89959631    -0.37400
N211        N  0.08789801  0.49974547  0.90380230    -0.57900
C212        C  0.97765182  0.60956758  0.91606017     0.26200
C213        C  0.05684342  0.60258933  0.91562370     0.26200
C214        C  0.96335106  0.41018026  0.91182133     0.26200
C215        C  0.04255693  0.40345143  0.90896081     0.26200
C216        C  0.90969047  0.55459509  0.89519022     0.34800
C217        C  0.90389880  0.47550682  0.89350542     0.34800
C218        C  0.11645383  0.53747966  0.89028512     0.34800
C219        C  0.11088233  0.45809745  0.88780448     0.34800
C220        C  0.99512103  0.65343876  0.93461809    -0.22700
C221        C  0.04515856  0.64903919  0.93445156    -0.22700
C222        C  0.97494002  0.36451002  0.92999437    -0.22700
C223        C  0.02501333  0.36034340  0.92831194    -0.22700
C224        C  0.86491335  0.54397363  0.87516210    -0.23700
C225        C  0.86122800  0.49358354  0.87409429    -0.23700
C226        C  0.15872176  0.51971770  0.86690818    -0.23700
C227        C  0.15525479  0.46919106  0.86548577    -0.23700
C228        C  0.92904295  0.60185223  0.90224286    -0.19100
C229        C  0.10387675  0.58747767  0.89866689    -0.19100
C230        C  0.09131782  0.41068465  0.89317559    -0.19100
C231        C  0.91607532  0.42561554  0.89899751    -0.19100
H232        H  0.97408640  0.68602416  0.94492463     0.13800
H233        H  0.07004597  0.67782932  0.94452315     0.13800
H234        H  0.95004391  0.33623463  0.94141855     0.13800
H235        H  0.04609421  0.32835886  0.93805089     0.13800
H236        H  0.83810090  0.56973979  0.86217104     0.12100
H237        H  0.83097757  0.47268777  0.86024374     0.12100
H238        H  0.18854124  0.54093260  0.85203578     0.12100
H239        H  0.18177353  0.44369267  0.84912276     0.12100
H240        H  0.01323431  0.54578041  0.88559795     0.25400
H241        H  0.00712882  0.46613710  0.88029084     0.25400
C242        C  0.23864848  0.15320409  0.84290164     0.85700
C243        C  0.22518123  0.20673064  0.85676174    -0.54500
C244        C  0.17817312  0.22005259  0.84727172     0.08600
C245        C  0.14825497  0.17746076  0.82516000     0.19600
C246        C  0.20026612  0.12313601  0.87118418    -0.55200
C247        C  0.15316183  0.13529350  0.86163240     0.08700
C248        C  0.22529721  0.14729628  0.78911476    -0.54800
C249        C  0.17804076  0.16015085  0.77879260     0.09300
H250        H  0.25099373  0.23213881  0.87234441     0.13800
H251        H  0.10966809  0.18747103  0.81907277    -0.00400
H252        H  0.20900270  0.09546318  0.89761065     0.14100
H253        H  0.25155063  0.13257256  0.76223415     0.13900
N254        N  0.10516884  0.01160840  0.57086442    -0.37400
N255        N  0.09798702  0.09163312  0.50319129    -0.57900
N256        N  0.09234925  0.01605262  0.42779291    -0.37400
N257        N  0.09419534  0.93634591  0.49483256    -0.57900
C258        C  0.09314268  0.05000498  0.60110571     0.26200
C259        C  0.09651808  0.97019452  0.59573701     0.26200
C260        C  0.08165747  0.05745494  0.40427360     0.26200
C261        C  0.07509767  0.97852702  0.40070831     0.26200
C262        C  0.11316115  0.11607250  0.54342557     0.34800
C263        C  0.11268786  0.11732714  0.46378925     0.34800
C264        C  0.11346498  0.90897904  0.53005178     0.34800
C265        C  0.10265410  0.91160386  0.45229202     0.34800
C266        C  0.07560554  0.03221650  0.64546993    -0.22700
C267        C  0.07804423  0.98195810  0.64206287    -0.22700
C268        C  0.05618254  0.04643074  0.36227317    -0.22700
C269        C  0.05189800  0.99631496  0.36009451    -0.22700
C270        C  0.13622612  0.15886137  0.52958901    -0.23700
C271        C  0.13637506  0.15934829  0.47889472    -0.23700
C272        C  0.13313551  0.86575584  0.51023053    -0.23700
C273        C  0.12623650  0.86743880  0.46046964    -0.23700
C274        C  0.10557294  0.09942944  0.59189669    -0.19100
C275        C  0.11142984  0.92281569  0.57973824    -0.19100
C276        C  0.08904627  0.92943210  0.40671340    -0.19100
C277        C  0.10310636  0.10273266  0.41500396    -0.19100
H278        H  0.06380708  0.05251700  0.67799646     0.13800
H279        H  0.06874995  0.95699127  0.67099235     0.13800
H280        H  0.04455921  0.07156604  0.33464342     0.13800
H281        H  0.03654173  0.97515676  0.33039044     0.13800
H282        H  0.15182924  0.18646313  0.55331941     0.12100
H283        H  0.15178994  0.18735380  0.45591747     0.12100
H284        H  0.15071229  0.83643388  0.52951452     0.12100
H285        H  0.13762746  0.83978319  0.43346904     0.12100
H286        H  0.12364146  0.01329347  0.53727947     0.25400
H287        H  0.11619908  0.01336046  0.45665231     0.25400
C288        C  0.16091864  0.23465392  0.15965648     0.85700
C289        C  0.14576869  0.22111323  0.21204317    -0.54500
C290        C  0.15304718  0.17312404  0.22304952     0.08600
C291        C  0.17587514  0.14208333  0.17957293     0.19600
C292        C  0.21445423  0.21861601  0.15484720    -0.55200
C293        C  0.22350473  0.17052381  0.16567094     0.08700
C294        C  0.13363483  0.19880959  0.12711390    -0.54800
C295        C  0.14036778  0.15045664  0.13646790     0.09300
H296        H  0.13260153  0.24700693  0.23983059     0.13800
H297        H  0.18200330  0.10291537  0.18800083    -0.00400
H298        H  0.24285237  0.24361783  0.14328961     0.14100
H299        H  0.10922314  0.21149835  0.09914359     0.13900
C300        C  0.15355897  0.77109734  0.16206423     0.85700
C301        C  0.13098322  0.78904570  0.21158368    -0.54500
C302        C  0.13660342  0.83798826  0.22064687     0.08600
C303        C  0.16349015  0.86501741  0.17928484     0.19600
C304        C  0.12959437  0.80379772  0.12454961    -0.55200
C305        C  0.13431843  0.85270813  0.13307739     0.08700
C306        C  0.20663103  0.78739138  0.16337465    -0.54800
C307        C  0.21231110  0.83638994  0.17296421     0.09300
H308        H  0.11379452  0.76599514  0.23852730     0.13800
H309        H  0.16748433  0.90494316  0.18655975    -0.00400
H310        H  0.10843105  0.78902363  0.09462180     0.14100
H311        H  0.23709342  0.76215982  0.15644534     0.13900
N312        N  0.99604114  0.43231280  0.08773176    -0.37400
N313        N  0.91920970  0.50771070  0.08961936    -0.57900
N314        N  0.99769239  0.57778568  0.08572401    -0.37400
N315        N  0.07444187  0.50213051  0.07685837    -0.57900
C316        C  0.95524834  0.40576879  0.08168725     0.26200
C317        C  0.03458358  0.40327292  0.07434055     0.26200
C318        C  0.95844582  0.60692456  0.07837540     0.26200
C319        C  0.03788423  0.60372504  0.07428502     0.26200
C320        C  0.89357410  0.46933676  0.10661482     0.34800
C321        C  0.89412270  0.54881841  0.10367155     0.34800
C322        C  0.10054420  0.46220058  0.08897637     0.34800
C323        C  0.10135419  0.54103966  0.08998871     0.34800
C324        C  0.96800029  0.35938372  0.06344718    -0.22700
C325        C  0.01817320  0.35782939  0.05886455    -0.22700
C326        C  0.97394427  0.65174889  0.06108289    -0.22700
C327        C  0.02415873  0.64983752  0.05887591    -0.22700
C328        C  0.85105294  0.48597021  0.13033214    -0.23700
C329        C  0.85133115  0.53651385  0.12833077    -0.23700
C330        C  0.14506557  0.47562241  0.10788065    -0.23700
C331        C  0.14555410  0.52591880  0.10859072    -0.23700
C332        C  0.90839863  0.41973262  0.10025337    -0.19100
C333        C  0.08358515  0.41399314  0.08449116    -0.19100
C334        C  0.08583201  0.58994992  0.08622360    -0.19100
C335        C  0.91024616  0.59697545  0.09465094    -0.19100
H336        H  0.94389835  0.32902551  0.05643470     0.13800
H337        H  0.04021730  0.32615022  0.04781023     0.13800
H338        H  0.95152595  0.68346022  0.05343621     0.13800
H339        H  0.04789538  0.67975051  0.04922517     0.13800
H340        H  0.82308166  0.46403918  0.14757550     0.12100
H341        H  0.82375747  0.56132544  0.14394487     0.12100
H342        H  0.17359135  0.45175228  0.12082787     0.12100
H343        H  0.17460940  0.54872849  0.12207592     0.12100
H344        H  0.99774873  0.46581749  0.10596343     0.25400
H345        H  0.99757180  0.54473321  0.10344628     0.25400
C346        C  0.16184655  0.70257692  0.09926987    -0.14100
C347        C  0.14821042  0.71750168  0.14753010     0.08000
C348        C  0.12445508  0.68371216  0.17782403    -0.14100
C349        C  0.10804994  0.63970589  0.15810867    -0.14100
C350        C  0.11555658  0.62862354  0.10825647     0.08000
C351        C  0.14470907  0.65874053  0.07937021    -0.14100
H352        H  0.18158717  0.72718446  0.07552614     0.12000
H353        H  0.11569927  0.69150713  0.21583103     0.12000
H354        H  0.08626944  0.61585982  0.18089819     0.12000
H355        H  0.15104473  0.65014919  0.04085296     0.12000
C356        C  0.10538902  0.36393217  0.15466399    -0.14100
C357        C  0.11267863  0.37394576  0.10511123     0.08000
C358        C  0.14247212  0.34286952  0.07570778    -0.14100
C359        C  0.16177279  0.29997652  0.09522665    -0.14100
C360        C  0.15071272  0.28713891  0.14405728     0.08000
C361        C  0.12417419  0.32121187  0.17408153    -0.14100
H362        H  0.08258712  0.38803748  0.17776250     0.12000
H363        H  0.14845168  0.35036355  0.03728482     0.12000
H364        H  0.18232685  0.27485849  0.07117220     0.12000
H365        H  0.11479640  0.31478364  0.21179721     0.12000
C366        C  0.14619551  0.91210332  0.33735759    -0.14100
C367        C  0.10194108  0.90156246  0.36153935     0.08000
C368        C  0.06839062  0.87042662  0.33929535    -0.14100
C369        C  0.07928629  0.84985757  0.29297773    -0.14100
C370        C  0.12348657  0.86090648  0.26850584     0.08000
C371        C  0.15684282  0.89205051  0.29108995    -0.14100
H372        H  0.17195742  0.93686914  0.35400155     0.12000
H373        H  0.03360263  0.86309695  0.35721636     0.12000
H374        H  0.05299414  0.82601405  0.27592286     0.12000
H375        H  0.19142775  0.90037158  0.27324449     0.12000
C376        C  0.16283281  0.11020706  0.34555918    -0.14100
C377        C  0.12171482  0.12946119  0.37174092     0.08000
C378        C  0.09127096  0.16299236  0.34886615    -0.14100
C379        C  0.10098002  0.17602549  0.30037562    -0.14100
C380        C  0.14160444  0.15610275  0.27362735     0.08000
C381        C  0.17269133  0.12335869  0.29698114    -0.14100
H382        H  0.18580517  0.08281535  0.36198989     0.12000
H383        H  0.05824899  0.17652183  0.36741728     0.12000
H384        H  0.07575546  0.20084132  0.28330482     0.12000
H385        H  0.20448669  0.10792618  0.27772768     0.12000
C386        C  0.18979690  0.14903288  0.68695382    -0.14100
C387        C  0.15801856  0.15535802  0.72811040     0.08000
C388        C  0.10733048  0.15388507  0.72025148    -0.14100
C389        C  0.08950426  0.14212635  0.67376489    -0.14100
C390        C  0.12188241  0.12926278  0.63477580     0.08000
C391        C  0.17203965  0.13509259  0.64133074    -0.14100
H392        H  0.22885580  0.15253537  0.68988572     0.12000
H393        H  0.08110202  0.15891638  0.75011380     0.12000
H394        H  0.05047614  0.13855274  0.66940209     0.12000
H395        H  0.19785769  0.12577311  0.61184692     0.12000
C396        C  0.15814301  0.34820209  0.90430978    -0.14100
C397        C  0.11939987  0.36593765  0.87700218     0.08000
C398        C  0.10173119  0.33669775  0.83846672    -0.14100
C399        C  0.12122214  0.28986648  0.82844677    -0.14100
C400        C  0.15879325  0.27096942  0.85687376     0.08000
C401        C  0.17762291  0.30117111  0.89442104    -0.14100
H402        H  0.17161876  0.36971848  0.93476753     0.12000
H403        H  0.07145531  0.34959242  0.81722175     0.12000
H404        H  0.10655424  0.26848716  0.79854574     0.12000
H405        H  0.20612864  0.28790592  0.91760676     0.12000
C406        C  0.11139147  0.83941869  0.68693952    -0.14100
C407        C  0.15794100  0.84864202  0.70598912     0.08000
C408        C  0.19166792  0.87489714  0.67726109    -0.14100
C409        C  0.17746655  0.89524511  0.63331520    -0.14100
C410        C  0.12970825  0.88947208  0.61709328     0.08000
C411        C  0.09734970  0.85974855  0.64294159    -0.14100
H412        H  0.08451381  0.81950405  0.70811215     0.12000
H413        H  0.22775900  0.88325672  0.68960565     0.12000
H414        H  0.20265247  0.91857834  0.61371411     0.12000
H415        H  0.06012856  0.85555074  0.63112327     0.12000
C416        C  0.12945246  0.68514401  0.80952271    -0.14100
C417        C  0.15322573  0.72076335  0.83817975     0.08000
C418        C  0.17000165  0.70686292  0.88438672    -0.14100
C419        C  0.15942581  0.66035725  0.90284014    -0.14100
C420        C  0.13263950  0.62668990  0.87506975     0.08000
C421        C  0.11999492  0.63872596  0.82747431    -0.14100
H422        H  0.11506295  0.69343926  0.77419754     0.12000
H423        H  0.18973592  0.73216605  0.90727576     0.12000
H424        H  0.16874216  0.65211516  0.94008177     0.12000
H425        H  0.09827938  0.61374369  0.80590598     0.12000
C426        C  0.33423503  0.09082649  0.12895403    -0.14100
C427        C  0.37279577  0.12427624  0.13479088     0.08000
C428        C  0.36270831  0.16847984  0.16035885    -0.14100
C429        C  0.31454015  0.18126173  0.17465322    -0.14100
C430        C  0.27501034  0.15046353  0.16329000     0.08000
C431        C  0.28585456  0.10374494  0.14309764    -0.14100
H432        H  0.34077587  0.05677382  0.10865188     0.12000
H433        H  0.39123541  0.19527242  0.16483741     0.12000
H434        H  0.30786458  0.21702143  0.19157395     0.12000
H435        H  0.25661205  0.07902202  0.13404583     0.12000
C436        C  0.30559370  0.09247319  0.86721322    -0.14100
C437        C  0.29211499  0.13957140  0.85175018     0.08000
C438        C  0.32942774  0.17441970  0.84574594    -0.14100
C439        C  0.37629872  0.16545904  0.86313013    -0.14100
C440        C  0.38710953  0.12088685  0.88523042     0.08000
C441        C  0.35247307  0.08344104  0.88430769    -0.14100
H442        H  0.27946368  0.06310794  0.86856155     0.12000
H443        H  0.32168087  0.20990746  0.83061350     0.12000
H444        H  0.40260008  0.19481617  0.86342880     0.12000
H445        H  0.36034964  0.04859384  0.90085455     0.12000
C446        C  0.87302688  0.32135995  0.18777912    -0.14100
C447        C  0.84599957  0.28925410  0.15803049     0.08000
C448        C  0.83282952  0.30543413  0.11131537    -0.14100
C449        C  0.84927326  0.35032365  0.09356577    -0.14100
C450        C  0.87898597  0.38014707  0.12230671     0.08000
C451        C  0.88928562  0.36610586  0.17000041    -0.14100
H452        H  0.88499766  0.31139693  0.22348936     0.12000
H453        H  0.81257201  0.28164227  0.08715645     0.12000
H454        H  0.84180588  0.36008614  0.05625873     0.12000
H455        H  0.91300970  0.38833282  0.19231851     0.12000
C456        C  0.72094975  0.09967496  0.15189163    -0.14100
C457        C  0.72746095  0.14772572  0.16996851     0.08000
C458        C  0.68535512  0.17709782  0.17947873    -0.14100
C459        C  0.63926609  0.16182204  0.16452829    -0.14100
C460        C  0.63394711  0.11653788  0.14022618     0.08000
C461        C  0.67451583  0.08409831  0.13744890    -0.14100
H462        H  0.75217607  0.07574841  0.14456710     0.12000
H463        H  0.68836953  0.21352748  0.19545421     0.12000
H464        H  0.60891462  0.18762516  0.16704287     0.12000
H465        H  0.67153763  0.04908829  0.11839932     0.12000
C466        C  0.83961339  0.14240491  0.36579899    -0.14100
C467        C  0.87324206  0.10337846  0.36840965     0.08000
C468        C  0.90025949  0.08917557  0.32569299    -0.14100
C469        C  0.89080765  0.11046681  0.28069282    -0.14100
C470        C  0.85567814  0.14786642  0.27780603     0.08000
C471        C  0.83141654  0.16489895  0.32095454    -0.14100
H472        H  0.81773000  0.15356064  0.39772148     0.12000
H473        H  0.92625159  0.05899187  0.32661803     0.12000
H474        H  0.91054279  0.09742427  0.24804676     0.12000
H475        H  0.80449870  0.19417749  0.31947438     0.12000
C476        C  0.84127677  0.31079645  0.89666853    -0.14100
C477        C  0.85023987  0.29410103  0.84797079     0.08000
C478        C  0.87126139  0.32717005  0.81473251    -0.14100
C479        C  0.88780476  0.37277273  0.83100110    -0.14100
C480        C  0.88345712  0.38672573  0.88052794     0.08000
C481        C  0.85789757  0.35657770  0.91286661    -0.14100
H482        H  0.82469121  0.28671597  0.92315879     0.12000
H483        H  0.87825708  0.31765736  0.77678563     0.12000
H484        H  0.90768431  0.39560028  0.80557948     0.12000
H485        H  0.85460602  0.36655546  0.95138293     0.12000
C486        C  0.69061084  0.17919919  0.84324803    -0.14100
C487        C  0.73383560  0.15110975  0.84730136     0.08000
C488        C  0.73016806  0.10393342  0.86671742    -0.14100
C489        C  0.68548329  0.08772493  0.88660728    -0.14100
C490        C  0.64375907  0.11845172  0.88746311     0.08000
C491        C  0.64624286  0.16320855  0.86335694    -0.14100
H492        H  0.69150374  0.21500867  0.82699072     0.12000
H493        H  0.76245613  0.08118849  0.87029525     0.12000
H494        H  0.68453112  0.05316384  0.90536124     0.12000
H495        H  0.61480272  0.18767542  0.86372664     0.12000
C496        C  0.89582465  0.11792440  0.71636818    -0.14100
C497        C  0.85662653  0.15058226  0.72493582     0.08000
C498        C  0.82747691  0.16389693  0.68555907    -0.14100
C499        C  0.83531963  0.14217135  0.63897463    -0.14100
C500        C  0.87317185  0.10763023  0.63086708     0.08000
C501        C  0.90441323  0.09712527  0.66963604    -0.14100
H502        H  0.91936001  0.10807363  0.74597914     0.12000
H503        H  0.79748282  0.18973332  0.69140499     0.12000
H504        H  0.81010507  0.15000576  0.61016802     0.12000
H505        H  0.93337191  0.06999117  0.66446344     0.12000
C506        C  0.34881540  0.84232500  0.17744919    -0.14100
C507        C  0.35716990  0.88183824  0.14661476     0.08000
C508        C  0.31853700  0.91453403  0.13749899    -0.14100
C509        C  0.27066918  0.90275375  0.15139264    -0.14100
C510        C  0.26145787  0.85844836  0.17476779     0.08000
C511        C  0.30110052  0.83075422  0.19161666    -0.14100
H512        H  0.37810963  0.81672546  0.18483726     0.12000
H513        H  0.32445179  0.94517786  0.11358307     0.12000
H514        H  0.24086096  0.92505577  0.13853530     0.12000
H515        H  0.29493372  0.79728274  0.21133186     0.12000
C516        C  0.33481981  0.79501404  0.89127659    -0.14100
C517        C  0.35720407  0.84028139  0.90021607     0.08000
C518        C  0.33554824  0.88340286  0.88352185    -0.14100
C519        C  0.29110057  0.88160743  0.85972738    -0.14100
C520        C  0.26732148  0.83681019  0.85345061     0.08000
C521        C  0.28965185  0.79338975  0.86856863    -0.14100
H522        H  0.35097222  0.76149151  0.90438485     0.12000
H523        H  0.35220013  0.91859169  0.89062629     0.12000
H524        H  0.27450824  0.91527206  0.84748481     0.12000
H525        H  0.27207905  0.75843075  0.86288370     0.12000
C526        C  0.89639716  0.85487952  0.28045436    -0.14100
C527        C  0.85088231  0.83430926  0.27068770     0.08000
C528        C  0.82142469  0.81881411  0.31032783    -0.14100
C529        C  0.83383180  0.83014996  0.35863205    -0.14100
C530        C  0.87585626  0.85728642  0.36805201     0.08000
C531        C  0.90883808  0.86623421  0.32886531    -0.14100
H532        H  0.91984158  0.86704594  0.25073305     0.12000
H533        H  0.78654995  0.80183519  0.30380676     0.12000
H534        H  0.80756164  0.82337308  0.38790786     0.12000
H535        H  0.94113923  0.88782773  0.33515697     0.12000
C536        C  0.82907116  0.71037305  0.09152800    -0.14100
C537        C  0.84241755  0.73475766  0.13506657     0.08000
C538        C  0.87303751  0.71048766  0.16731042    -0.14100
C539        C  0.89157173  0.66371226  0.15557132    -0.14100
C540        C  0.88023144  0.64025836  0.11116356     0.08000
C541        C  0.84821364  0.66354264  0.07946152    -0.14100
H542        H  0.80556790  0.72834878  0.06595894     0.12000
H543        H  0.88317496  0.72797150  0.20146266     0.12000
H544        H  0.91685724  0.64666565  0.18008967     0.12000
H545        H  0.83994104  0.64650642  0.04455849     0.12000
C546        C  0.67661972  0.83480074  0.17335764    -0.14100
C547        C  0.71300067  0.86815230  0.15914657     0.08000
C548        C  0.69794938  0.91440156  0.14258244    -0.14100
C549        C  0.64896306  0.92333660  0.13237751    -0.14100
C550        C  0.61440876  0.88628386  0.13848117     0.08000
C551        C  0.62771003  0.84352741  0.16256065    -0.14100
H552        H  0.68657733  0.80005491  0.18897741     0.12000
H553        H  0.72368432  0.94313792  0.13521086     0.12000
H554        H  0.63911269  0.95682591  0.11423575     0.12000
H555        H  0.60149670  0.81451679  0.16763064     0.12000
C556        C  0.67702244  0.81341067  0.84984315    -0.14100
C557        C  0.71082877  0.85179748  0.85475093     0.08000
C558        C  0.69280137  0.89843297  0.86973695    -0.14100
C559        C  0.64462747  0.90434203  0.88706645    -0.14100
C560        C  0.61342192  0.86398134  0.88908645     0.08000
C561        C  0.62893738  0.81920618  0.86768564    -0.14100
H562        H  0.68857342  0.77780238  0.83538137     0.12000
H563        H  0.71621099  0.93005262  0.87034523     0.12000
H564        H  0.63306247  0.93934884  0.90311579     0.12000
H565        H  0.60535855  0.78761831  0.86892197     0.12000
C566        C  0.89184503  0.85767202  0.71713017    -0.14100
C567        C  0.84679364  0.83572289  0.72766169     0.08000
C568        C  0.81754759  0.82121099  0.68823792    -0.14100
C569        C  0.83012148  0.83375899  0.64009454    -0.14100
C570        C  0.87219950  0.86106721  0.63040216     0.08000
C571        C  0.90445594  0.87017019  0.66892301    -0.14100
H572        H  0.91516693  0.86934812  0.74649766     0.12000
H573        H  0.78311930  0.80312514  0.69499848     0.12000
H574        H  0.80432340  0.82691216  0.61139690     0.12000
H575        H  0.93669091  0.89203373  0.66255866     0.12000
C576        C  0.84174899  0.71056392  0.90704350    -0.14100
C577        C  0.85502574  0.73458506  0.86359831     0.08000
C578        C  0.89106193  0.71327123  0.83234526    -0.14100
C579        C  0.91371725  0.66920126  0.84443863    -0.14100
C580        C  0.90072617  0.64561579  0.88793107     0.08000
C581        C  0.86448135  0.66638078  0.91910842    -0.14100
H582        H  0.81461442  0.72648006  0.93228261     0.12000
H583        H  0.90153668  0.73047035  0.79839371     0.12000
H584        H  0.94202783  0.65371474  0.82021463     0.12000
H585        H  0.85474314  0.64902826  0.95317687     0.12000
loop_ 
_geom_bond_atom_site_label_1 
_geom_bond_atom_site_label_2 
_geom_bond_distance 
_geom_bond_site_symmetry_2 
_ccdc_geom_bond_type 
N1            N2   1.333       .  A
N1            N7   1.316       .  A
N1          Mn30   2.229       .  S
N2            C9   1.359       .  A
N3            N5   1.317       .  A
N3            N4   1.317       .  A
N3          Mn19   2.215   1_654  S
N4           C10   1.354       .  A
N5            N6   1.329       .  A
N5          Mn30   2.225   1_655  S
N6           C10   1.358       .  A
N7            N8   1.317       .  A
N7          Mn19   2.224   1_554  S
N8            C9   1.356       .  A
C9          C295   1.501       .  S
C10         C152   1.490       .  S
N11          N17   1.318       .  A
N11          N12   1.329       .  A
N11         Mn41   2.227       .  S
N12          C20   1.357       .  A
N13          N14   1.323       .  A
N13          N15   1.317       .  A
N13         Mn19   2.210       .  S
N14          C21   1.352       .  A
N15          N16   1.325       .  A
N15         Mn41   2.232   1_455  S
N16          C21   1.356       .  A
N17          N18   1.320       .  A
N17         Mn19   2.223   1_655  S
N18          C20   1.354       .  A
Mn19        Cl43   2.535   1_455  S
C20         C111   1.493       .  S
C21         C247   1.482       .  S
N22          N23   1.323       .  A
N22          N28   1.320       .  A
N22         Mn30   2.215   1_665  S
N23          C31   1.351       .  A
N24          N26   1.319       .  A
N24          N25   1.317       .  A
N24         Mn42   2.215   1_454  S
N25          C32   1.353       .  A
N26          N27   1.325       .  A
N26         Mn30   2.208   1_565  S
N27          C32   1.353       .  A
N28          N29   1.325       .  A
N28         Mn42   2.234   1_554  S
N29          C31   1.356       .  A
Mn30        Cl43   2.582   1_454  S
C31          C60   1.482       .  S
C32         C305   1.478       .  S
N33          N34   1.318       .  A
N33          N39   1.318       .  A
N33         Mn41   2.215   1_465  S
N34          C44   1.353       .  A
N35          N36   1.325       .  A
N35          N37   1.320       .  A
N35         Mn42   2.235       .  S
N36          C45   1.356       .  A
N37          N38   1.324       .  A
N37         Mn41   2.221   1_565  S
N38          C45   1.352       .  A
N39          N40   1.330       .  A
N39         Mn42   2.229   1_455  S
N40          C44   1.357       .  A
Mn41        Cl43   2.568       .  S
Mn42        Cl43   2.553   1_565  S
C44         C201   1.491       .  S
C45          C51   1.484       .  S
C46          C47   1.540       .  S
C46          C52   1.529       .  S
C46          C50   1.547       .  S
C46         C557   1.530       .  S
C47          H54   1.085       .  S
C47          C48   1.366       .  D
C48         C577   1.486       .  S
C48          C49   1.545       .  S
C49          C53   1.551       .  S
C49          C51   1.545       .  S
C49          H55   1.110       .  S
C50          H56   1.085       .  S
C50          C51   1.364       .  D
C52          H57   1.086       .  S
C52          C53   1.368       .  D
C53         C567   1.496       .  S
C58          C59   1.543       .  S
C58          C64   1.527       .  S
C58          C62   1.545       .  S
C58         C547   1.526       .  S
C59          H66   1.084       .  S
C59          C60   1.362       .  D
C60          C61   1.547       .  S
C61          C65   1.547       .  S
C61          C63   1.546       .  S
C61          H67   1.110       .  S
C62          H68   1.086       .  S
C62          C63   1.368       .  D
C63         C537   1.488       .  S
C64          H69   1.087       .  S
C64          C65   1.364       .  D
C65         C527   1.491       .  S
N70          C75   1.353       .  A
N70          C74   1.354   1_554  A
N70         H102   1.038       .  S
N71          C78   1.350       .  A
N71          C79   1.349       .  A
N72          C77   1.352       .  A
N72          C76   1.354   1_554  A
N72         H103   1.036       .  S
N73          C80   1.348       .  A
N73          C81   1.348       .  A
C74          C82   1.386       .  A
C74          C90   1.413       .  A
C75          C91   1.418       .  A
C75          C83   1.390       .  A
C76          C84   1.388   1_556  A
C76          C93   1.415       .  A
C77          C92   1.418       .  A
C77          C85   1.388       .  A
C78          C90   1.407       .  A
C78          C86   1.384       .  A
C79          C93   1.412       .  A
C79          C87   1.387       .  A
C80          C88   1.385       .  A
C80          C91   1.408       .  A
C81          C89   1.386       .  A
C81          C92   1.409       .  A
C82          C83   1.365   1_556  A
C82          H94   1.082       .  S
C83          H95   1.081       .  S
C84          C85   1.367       .  A
C84          H96   1.081   1_554  S
C85          H97   1.082       .  S
C86          C87   1.378       .  A
C86          H98   1.082       .  S
C87          H99   1.082       .  S
C88          C89   1.379       .  A
C88         H100   1.082       .  S
C89         H101   1.082       .  S
C90         C560   1.483       .  S
C91         C550   1.479       .  S
C92         C507   1.481       .  S
C93         C517   1.479       .  S
C104        C105   1.542       .  S
C104        C110   1.535       .  S
C104        C108   1.531       .  S
C104        C477   1.533       .  S
C105        H112   1.081       .  S
C105        C106   1.362       .  D
C106        C497   1.483       .  S
C106        C107   1.549       .  S
C107        C111   1.550       .  S
C107        C109   1.558       .  S
C107        H113   1.110       .  S
C108        H114   1.085       .  S
C108        C109   1.373       .  D
C109        C487   1.500       .  S
C110        H115   1.087       .  S
C110        C111   1.364       .  D
N116        C121   1.354   1_565  A
N116        C120   1.353       .  A
N116        H148   1.042       .  S
N117        C124   1.351       .  A
N117        C125   1.352       .  A
N118        C123   1.354   1_565  A
N118        C122   1.354       .  A
N118        H149   1.041       .  S
N119        C126   1.352       .  A
N119        C127   1.351       .  A
C120        C128   1.388       .  A
C120        C136   1.414       .  A
C121        C137   1.413       .  A
C121        C129   1.386       .  A
C122        C130   1.388       .  A
C122        C139   1.414       .  A
C123        C138   1.412       .  A
C123        C131   1.387       .  A
C124        C136   1.415       .  A
C124        C132   1.386       .  A
C125        C139   1.416       .  A
C125        C133   1.386       .  A
C126        C134   1.386       .  A
C126        C137   1.417       .  A
C127        C135   1.386       .  A
C127        C138   1.416       .  A
C128        C129   1.366   1_565  A
C128        H140   1.082       .  S
C129        H141   1.083       .  S
C130        C131   1.366   1_565  A
C130        H142   1.082       .  S
C131        H143   1.083       .  S
C132        C133   1.386       .  A
C132        H144   1.082       .  S
C133        H145   1.082       .  S
C134        C135   1.385       .  A
C134        H146   1.082       .  S
C135        H147   1.082       .  S
C136        C530   1.491       .  S
C137        C467   1.498       .  S
C138        C500   1.493       .  S
C139        C570   1.494       .  S
C150        C151   1.528       .  S
C150        C156   1.544       .  S
C150        C154   1.531       .  S
C150        C447   1.533       .  S
C151        H158   1.087       .  S
C151        C152   1.361       .  D
C152        C153   1.551       .  S
C153        C157   1.548       .  S
C153        C155   1.561       .  S
C153        H159   1.110       .  S
C154        H160   1.085       .  S
C154        C155   1.375       .  D
C155        C457   1.505       .  S
C156        H161   1.082       .  S
C156        C157   1.365       .  D
C157        C470   1.484       .  S
N162        C167   1.356       .  A
N162        C166   1.354   1_554  A
N162        H194   1.038       .  S
N163        C170   1.351       .  A
N163        C171   1.352       .  A
N164        C169   1.357       .  A
N164        C168   1.360   1_554  A
N164        H195   1.039       .  S
N165        C172   1.358       .  A
N165        C173   1.355       .  A
C166        C174   1.388       .  A
C166        C182   1.417       .  A
C167        C183   1.418       .  A
C167        C175   1.388       .  A
C168        C176   1.386       .  A
C168        C185   1.420       .  A
C169        C184   1.423       .  A
C169        C177   1.390       .  A
C170        C182   1.412       .  A
C170        C178   1.386       .  A
C171        C185   1.414       .  A
C171        C179   1.386       .  A
C172        C180   1.385       .  A
C172        C183   1.424       .  A
C173        C181   1.387       .  A
C173        C184   1.425       .  A
C174        C175   1.366   1_556  A
C174        H186   1.082       .  S
C175        H187   1.082       .  S
C176        C177   1.363   1_556  A
C176        H188   1.082       .  S
C177        H189   1.081       .  S
C178        C179   1.379       .  A
C178        H190   1.082       .  S
C179        H191   1.082       .  S
C180        C181   1.385       .  A
C180        H192   1.082       .  S
C181        H193   1.082       .  S
C182        C440   1.485       .  S
C183        C427   1.505       .  S
C184        C460   1.500       .  S
C185        C490   1.498       .  S
C196        C197   1.532       .  S
C196        C202   1.538       .  S
C196        C200   1.527       .  S
C196        C407   1.524       .  S
C197        H204   1.083       .  S
C197        C198   1.374       .  D
C198        C417   1.504       .  S
C198        C199   1.554       .  S
C199        C203   1.543       .  S
C199        C201   1.550       .  S
C199        H205   1.108       .  S
C200        H206   1.087       .  S
C200        C201   1.360       .  D
C202        H207   1.083       .  S
C202        C203   1.364       .  D
C203        C520   1.469       .  S
N208        C213   1.350       .  A
N208        C212   1.350   1_455  A
N208        H240   1.037       .  S
N209        C216   1.350       .  A
N209        C217   1.350       .  A
N210        C215   1.350       .  A
N210        C214   1.351   1_455  A
N210        H241   1.039       .  S
N211        C218   1.352       .  A
N211        C219   1.352       .  A
C212        C220   1.385       .  A
C212        C228   1.409       .  A
C213        C229   1.412       .  A
C213        C221   1.389       .  A
C214        C222   1.388       .  A
C214        C231   1.412       .  A
C215        C230   1.410       .  A
C215        C223   1.386       .  A
C216        C228   1.411       .  A
C216        C224   1.386       .  A
C217        C231   1.410       .  A
C217        C225   1.385       .  A
C218        C226   1.386       .  A
C218        C229   1.416       .  A
C219        C227   1.386       .  A
C219        C230   1.415       .  A
C220        C221   1.374   1_655  A
C220        H232   1.083       .  S
C221        H233   1.081       .  S
C222        C223   1.374   1_655  A
C222        H234   1.081       .  S
C223        H235   1.083       .  S
C224        C225   1.380       .  A
C224        H236   1.082       .  S
C225        H237   1.082       .  S
C226        C227   1.383       .  A
C226        H238   1.082       .  S
C227        H239   1.082       .  S
C228        C580   1.481       .  S
C229        C420   1.485       .  S
C230        C397   1.489       .  S
C231        C480   1.483       .  S
C242        C243   1.540       .  S
C242        C248   1.529       .  S
C242        C246   1.543       .  S
C242        C437   1.533       .  S
C243        H250   1.084       .  S
C243        C244   1.366       .  D
C244        C400   1.497       .  S
C244        C245   1.550       .  S
C245        C249   1.553       .  S
C245        C247   1.545       .  S
C245        H251   1.106       .  S
C246        H252   1.085       .  S
C246        C247   1.361       .  D
C248        H253   1.083       .  S
C248        C249   1.374       .  D
C249        C387   1.506       .  S
N254        C259   1.351   1_545  A
N254        C258   1.353       .  A
N254        H286   1.039       .  S
N255        C262   1.351       .  A
N255        C263   1.353       .  A
N256        C261   1.347   1_545  A
N256        C260   1.345       .  A
N256        H287   1.040       .  S
N257        C264   1.345       .  A
N257        C265   1.346       .  A
C258        C266   1.392       .  A
C258        C274   1.421       .  A
C259        C275   1.409       .  A
C259        C267   1.382       .  A
C260        C268   1.387       .  A
C260        C277   1.402       .  A
C261        C276   1.403       .  A
C261        C269   1.386       .  A
C262        C274   1.421       .  A
C262        C270   1.389       .  A
C263        C277   1.415       .  A
C263        C271   1.384       .  A
C264        C272   1.385       .  A
C264        C275   1.402       .  A
C265        C273   1.386       .  A
C265        C276   1.404       .  A
C266        C267   1.373   1_545  A
C266        H278   1.078       .  S
C267        H279   1.082       .  S
C268        C269   1.374   1_545  A
C268        H280   1.082       .  S
C269        H281   1.082       .  S
C270        C271   1.386       .  A
C270        H282   1.082       .  S
C271        H283   1.082       .  S
C272        C273   1.379       .  A
C272        H284   1.082       .  S
C273        H285   1.082       .  S
C274        C390   1.493       .  S
C275        C410   1.475       .  S
C276        C367   1.470       .  S
C277        C377   1.485       .  S
C288        C289   1.535       .  S
C288        C294   1.522       .  S
C288        C292   1.527       .  S
C288        C360   1.528       .  S
C289        H296   1.079       .  S
C289        C290   1.363       .  D
C290        C380   1.495       .  S
C290        C291   1.559       .  S
C291        C295   1.565       .  S
C291        C293   1.568       .  S
C291        H297   1.110       .  S
C292        H298   1.086       .  S
C292        C293   1.373       .  D
C293        C430   1.507       .  S
C294        H299   1.087       .  S
C294        C295   1.361       .  D
C300        C301   1.542       .  S
C300        C306   1.526       .  S
C300        C304   1.529       .  S
C300        C347   1.517       .  S
C301        H308   1.081       .  S
C301        C302   1.364       .  D
C302        C370   1.473       .  S
C302        C303   1.540       .  S
C303        C307   1.545       .  S
C303        C305   1.544       .  S
C303        H309   1.110       .  S
C304        H310   1.087       .  S
C304        C305   1.358       .  D
C306        H311   1.086       .  S
C306        C307   1.368       .  D
C307        C510   1.482       .  S
N312        C317   1.351   1_655  A
N312        C316   1.350       .  A
N312        H344   1.034       .  S
N313        C320   1.351       .  A
N313        C321   1.353       .  A
N314        C319   1.349   1_655  A
N314        C318   1.351       .  A
N314        H345   1.033       .  S
N315        C322   1.348       .  A
N315        C323   1.347       .  A
C316        C324   1.388       .  A
C316        C332   1.413       .  A
C317        C333   1.409       .  A
C317        C325   1.385       .  A
C318        C326   1.388       .  A
C318        C335   1.414       .  A
C319        C334   1.410       .  A
C319        C327   1.386       .  A
C320        C332   1.415       .  A
C320        C328   1.386       .  A
C321        C335   1.416       .  A
C321        C329   1.386       .  A
C322        C330   1.386       .  A
C322        C333   1.404       .  A
C323        C331   1.386       .  A
C323        C334   1.403       .  A
C324        C325   1.377   1_655  A
C324        H336   1.082       .  S
C325        H337   1.082       .  S
C326        C327   1.375   1_655  A
C326        H338   1.082       .  S
C327        H339   1.082       .  S
C328        C329   1.382       .  A
C328        H340   1.082       .  S
C329        H341   1.082       .  S
C330        C331   1.372       .  A
C330        H342   1.082       .  S
C331        H343   1.083       .  S
C332        C450   1.484       .  S
C333        C357   1.475       .  S
C334        C350   1.468       .  S
C335        C540   1.487       .  S
C346        C347   1.413       .  A
C346        C351   1.394       .  A
C346        H352   1.083       .  S
C347        C348   1.406       .  A
C348        C349   1.389       .  A
C348        H353   1.077       .  S
C349        C350   1.399       .  A
C349        H354   1.084       .  S
C350        C351   1.395       .  A
C351        H355   1.083       .  S
C356        C357   1.397       .  A
C356        C361   1.390       .  A
C356        H362   1.084       .  S
C357        C358   1.398       .  A
C358        C359   1.400       .  A
C358        H363   1.083       .  S
C359        C360   1.414       .  A
C359        H364   1.083       .  S
C360        C361   1.411       .  A
C361        H365   1.075       .  S
C366        C367   1.402       .  A
C366        C371   1.390       .  A
C366        H372   1.084       .  S
C367        C368   1.399       .  A
C368        C369   1.398       .  A
C368        H373   1.083       .  S
C369        C370   1.407       .  A
C369        H374   1.083       .  S
C370        C371   1.400       .  A
C371        H375   1.083       .  S
C376        C377   1.410       .  A
C376        C381   1.403       .  A
C376        H382   1.083       .  S
C377        C378   1.399       .  A
C378        C379   1.400       .  A
C378        H383   1.083       .  S
C379        C380   1.413       .  A
C379        H384   1.083       .  S
C380        C381   1.402       .  A
C381        H385   1.083       .  S
C386        C387   1.412       .  A
C386        C391   1.396       .  A
C386        H392   1.080       .  S
C387        C388   1.411       .  A
C388        C389   1.404       .  A
C388        H393   1.080       .  S
C389        C390   1.406       .  A
C389        H394   1.083       .  S
C390        C391   1.400       .  A
C391        H395   1.083       .  S
C396        C397   1.400       .  A
C396        C401   1.403       .  A
C396        H402   1.083       .  S
C397        C398   1.406       .  A
C398        C399   1.398       .  A
C398        H403   1.084       .  S
C399        C400   1.404       .  A
C399        H404   1.082       .  S
C400        C401   1.413       .  A
C401        H405   1.081       .  S
C406        C407   1.412       .  A
C406        C411   1.396       .  A
C406        H412   1.083       .  S
C407        C408   1.409       .  A
C408        C409   1.396       .  A
C408        H413   1.077       .  S
C409        C410   1.401       .  A
C409        H414   1.084       .  S
C410        C411   1.397       .  A
C411        H415   1.083       .  S
C416        C417   1.410       .  A
C416        C421   1.393       .  A
C416        H422   1.079       .  S
C417        C418   1.412       .  A
C418        C419   1.406       .  A
C418        H423   1.080       .  S
C419        C420   1.404       .  A
C419        H424   1.083       .  S
C420        C421   1.399       .  A
C421        H425   1.084       .  S
C426        C427   1.413       .  A
C426        C431   1.410       .  A
C426        H432   1.083       .  S
C427        C428   1.403       .  A
C428        C429   1.405       .  A
C428        H433   1.083       .  S
C429        C430   1.414       .  A
C429        H434   1.083       .  S
C430        C431   1.404       .  A
C431        H435   1.083       .  S
C436        C437   1.409       .  A
C436        C441   1.398       .  A
C436        H442   1.081       .  S
C437        C438   1.412       .  A
C438        C439   1.400       .  A
C438        H443   1.082       .  S
C439        C440   1.401       .  A
C439        H444   1.083       .  S
C440        C441   1.402       .  A
C441        H445   1.083       .  S
C446        C447   1.411       .  A
C446        C451   1.397       .  A
C446        H452   1.077       .  S
C447        C448   1.414       .  A
C448        C449   1.402       .  A
C448        H453   1.083       .  S
C449        C450   1.400       .  A
C449        H454   1.083       .  S
C450        C451   1.401       .  A
C451        H455   1.084       .  S
C456        C457   1.406       .  A
C456        C461   1.408       .  A
C456        H462   1.082       .  S
C457        C458   1.413       .  A
C458        C459   1.401       .  A
C458        H463   1.082       .  S
C459        C460   1.401       .  A
C459        H464   1.083       .  S
C460        C461   1.412       .  A
C461        H465   1.083       .  S
C466        C467   1.404       .  A
C466        C471   1.404       .  A
C466        H472   1.083       .  S
C467        C468   1.412       .  A
C468        C469   1.400       .  A
C468        H473   1.084       .  S
C469        C470   1.399       .  A
C469        H474   1.083       .  S
C470        C471   1.407       .  A
C471        H475   1.083       .  S
C476        C477   1.413       .  A
C476        C481   1.401       .  A
C476        H482   1.083       .  S
C477        C478   1.411       .  A
C478        C479   1.397       .  A
C478        H483   1.076       .  S
C479        C480   1.400       .  A
C479        H484   1.084       .  S
C480        C481   1.400       .  A
C481        H485   1.083       .  S
C486        C487   1.411       .  A
C486        C491   1.399       .  A
C486        H492   1.082       .  S
C487        C488   1.406       .  A
C488        C489   1.406       .  A
C488        H493   1.082       .  S
C489        C490   1.409       .  A
C489        H494   1.083       .  S
C490        C491   1.401       .  A
C491        H495   1.083       .  S
C496        C497   1.400       .  A
C496        C501   1.400       .  A
C496        H502   1.083       .  S
C497        C498   1.407       .  A
C498        C499   1.404       .  A
C498        H503   1.083       .  S
C499        C500   1.404       .  A
C499        H504   1.083       .  S
C500        C501   1.410       .  A
C501        H505   1.084       .  S
C506        C507   1.400       .  A
C506        C511   1.395       .  A
C506        H512   1.083       .  S
C507        C508   1.407       .  A
C508        C509   1.399       .  A
C508        H513   1.083       .  S
C509        C510   1.402       .  A
C509        H514   1.083       .  S
C510        C511   1.408       .  A
C511        H515   1.083       .  S
C516        C517   1.404       .  A
C516        C521   1.398       .  A
C516        H522   1.083       .  S
C517        C518   1.402       .  A
C518        C519   1.395       .  A
C518        H523   1.083       .  S
C519        C520   1.401       .  A
C519        H524   1.083       .  S
C520        C521   1.402       .  A
C521        H525   1.083       .  S
C526        C527   1.402       .  A
C526        C531   1.404       .  A
C526        H532   1.083       .  S
C527        C528   1.410       .  A
C528        C529   1.400       .  A
C528        H533   1.083       .  S
C529        C530   1.401       .  A
C529        H534   1.083       .  S
C530        C531   1.411       .  A
C531        H535   1.083       .  S
C536        C537   1.409       .  A
C536        C541   1.405       .  A
C536        H542   1.083       .  S
C537        C538   1.402       .  A
C538        C539   1.396       .  A
C538        H543   1.083       .  S
C539        C540   1.403       .  A
C539        H544   1.083       .  S
C540        C541   1.404       .  A
C541        H545   1.082       .  S
C546        C547   1.410       .  A
C546        C551   1.397       .  A
C546        H552   1.083       .  S
C547        C548   1.410       .  A
C548        C549   1.397       .  A
C548        H553   1.079       .  S
C549        C550   1.402       .  A
C549        H554   1.083       .  S
C550        C551   1.401       .  A
C551        H555   1.083       .  S
C556        C557   1.412       .  A
C556        C561   1.399       .  A
C556        H562   1.082       .  S
C557        C558   1.409       .  A
C558        C559   1.397       .  A
C558        H563   1.081       .  S
C559        C560   1.403       .  A
C559        H564   1.083       .  S
C560        C561   1.401       .  A
C561        H565   1.083       .  S
C566        C567   1.403       .  A
C566        C571   1.404       .  A
C566        H572   1.083       .  S
C567        C568   1.411       .  A
C568        C569   1.403       .  A
C568        H573   1.083       .  S
C569        C570   1.402       .  A
C569        H574   1.083       .  S
C570        C571   1.411       .  A
C571        H575   1.083       .  S
C576        C577   1.410       .  A
C576        C581   1.400       .  A
C576        H582   1.082       .  S
C577        C578   1.402       .  A
C578        C579   1.397       .  A
C578        H583   1.083       .  S
C579        C580   1.404       .  A
C579        H584   1.083       .  S
C580        C581   1.399       .  A
C581        H585   1.083       .  S
