geometry optimzed in LAMMPS
_audit_creation_date              2020-12-01 
_audit_creation_method            'lammps2cif' 
_symmetry_space_group_name_H-M    'P1' 
_symmetry_Int_Tables_number       1 
_symmetry_cell_setting            triclinic 
loop_ 
_symmetry_equiv_pos_as_xyz 
  x,y,z 
_cell_length_a                    41.05702845 
_cell_length_b                    41.01112736188238 
_cell_length_c                    38.41190486480049 
_cell_angle_alpha                 90.72261284948902 
_cell_angle_beta                  89.7381324737648 
_cell_angle_gamma                 119.71986740734015 
loop_ 
_atom_site_label 
_atom_site_type_symbol 
_atom_site_fract_x 
_atom_site_fract_y 
_atom_site_fract_z 
_atom_site_charge 
O1          O  0.77342394  0.89686688  0.43172195    -0.71700
O2          O  0.73917419  0.96674814  0.41281202    -0.71900
O3          O  0.78941690  0.96503504  0.45656706    -0.71700
O4          O  0.72440822  0.89919129  0.38734340    -0.71700
O5          O  0.67983392  0.87249418  0.42528716    -0.71700
O6          O  0.74597604  0.93820491  0.49568105    -0.71700
O7          O  0.69642126  0.94001560  0.45252904    -0.71700
O8          O  0.72837533  0.86996255  0.46927390    -0.71800
V9          V  0.75579276  0.93150903  0.42284919     1.35200
V10         V  0.71355309  0.90568162  0.45992659     1.35200
C11         C  0.75573088  0.87079497  0.45339420     0.77600
C12         C  0.71211338  0.96535685  0.43016964     0.77600
C13         C  0.77887487  0.96337259  0.48770248     0.77500
C14         C  0.69131205  0.87428771  0.39428564     0.77500
O15         O  0.57113099  0.11569060  0.42006991    -0.71700
O16         O  0.63525292  0.07427269  0.43691308    -0.71900
O17         O  0.63693951  0.12698198  0.39535482    -0.71700
O18         O  0.56961018  0.06375223  0.46314060    -0.71700
O19         O  0.54134157  0.01952657  0.42454235    -0.71700
O20         O  0.60638766  0.08629475  0.35452946    -0.71700
O21         O  0.60723323  0.03402222  0.39498057    -0.71700
O22         O  0.53995972  0.07042648  0.38282791    -0.71800
V23         V  0.60264830  0.09429581  0.42816786     1.35200
V24         V  0.57426409  0.05330731  0.39002279     1.35200
C25         C  0.54435112  0.09949434  0.39847475     0.77600
C26         C  0.63272918  0.04764941  0.41775012     0.77600
C27         C  0.63329242  0.11824957  0.36350053     0.77500
C28         C  0.54388505  0.03097116  0.45585712     0.77500
O29         O  0.06653619  0.18522710  0.93386272    -0.71700
O30         O  0.00775550  0.23155891  0.91297248    -0.71900
O31         O  0.07281989  0.23837473  0.88986381    -0.71700
O32         O  0.00127810  0.17738144  0.95638402    -0.71700
O33         O  0.03075215  0.21942290  0.99676159    -0.71700
O34         O  0.10262923  0.28151269  0.92905451    -0.71700
O35         O  0.03712555  0.27306896  0.95372199    -0.71700
O36         O  0.09660379  0.22866181  0.97302326    -0.71800
V37         V  0.03765250  0.20900923  0.92401179     1.35200
V38         V  0.06624855  0.24986977  0.96232500     1.35200
C39         C  0.09158381  0.19939474  0.95722166     0.77600
C40         C  0.01227297  0.26007932  0.93029737     0.77600
C41         C  0.10016094  0.27010363  0.89782937     0.77500
C42         C  0.00372868  0.18766510  0.98779901     0.77500
O43         O  0.86653189  0.40576230  0.90768723    -0.71700
O44         O  0.90673407  0.34104097  0.92655479    -0.71900
O45         O  0.91613247  0.40628411  0.95323360    -0.71700
O46         O  0.85586253  0.34040702  0.88182123    -0.71700
O47         O  0.89962834  0.37098277  0.84378859    -0.71700
O48         O  0.96176198  0.43600724  0.91696098    -0.71700
O49         O  0.94986038  0.37045490  0.88776468    -0.71700
O50         O  0.91276877  0.43699518  0.87210824    -0.71800
V51         V  0.88723884  0.37390413  0.91663295     1.35200
V52         V  0.93016764  0.40301469  0.88088317     1.35200
C53         C  0.88343969  0.43279187  0.88683732     0.77600
C54         C  0.93504263  0.34457679  0.90981805     0.77600
C55         C  0.94887559  0.43272707  0.94761793     0.77500
C56         C  0.86695466  0.34454474  0.85071644     0.77500
O57         O  0.18721698  0.06398323  0.58189255    -0.71700
O58         O  0.23041695  0.00158112  0.60082650    -0.71900
O59         O  0.23973168  0.06737985  0.62566545    -0.71700
O60         O  0.17674867  0.99766848  0.55852000    -0.71700
O61         O  0.21612768  0.02836930  0.51743476    -0.71700
O62         O  0.28419800  0.09416601  0.58770331    -0.71700
O63         O  0.26893788  0.02781155  0.55786235    -0.71700
O64         O  0.23293315  0.09542715  0.54586663    -0.71800
V65         V  0.20936295  0.03319163  0.59101945     1.35200
V66         V  0.24983263  0.06093322  0.55297077     1.35200
C67         C  0.20361834  0.09089829  0.56075832     0.77600
C68         C  0.25637207  0.00343651  0.58135243     0.77600
C69         C  0.27274998  0.09234943  0.61882479     0.77500
C70         C  0.18454365  0.00131631  0.52658865     0.77500
O71         O  0.40377760  0.85924257  0.59670206    -0.71700
O72         O  0.33897742  0.89988833  0.57880851    -0.71900
O73         O  0.40513898  0.91070403  0.55305825    -0.71700
O74         O  0.33749859  0.84741603  0.62082058    -0.71700
O75         O  0.36488324  0.89054771  0.66067024    -0.71700
O76         O  0.43581856  0.95358989  0.59217054    -0.71700
O77         O  0.36971076  0.94336431  0.61757244    -0.71700
O78         O  0.43146594  0.90194745  0.63697785    -0.71800
V79         V  0.37197023  0.88025322  0.58800715     1.35200
V80         V  0.39999173  0.92162325  0.62598535     1.35200
C81         C  0.42815631  0.87363011  0.62070674     0.77600
C82         C  0.34276689  0.92803689  0.59637788     0.77600
C83         C  0.43256343  0.94241518  0.56069461     0.77500
C84         C  0.33909428  0.85786157  0.65204011     0.77500
O85         O  0.44109655  0.22655137  0.76838840    -0.71700
O86         O  0.40402557  0.29370730  0.74779631    -0.71900
O87         O  0.45282461  0.29284121  0.79404789    -0.71700
O88         O  0.39344643  0.22775906  0.72144725    -0.71700
O89         O  0.34755639  0.19774666  0.75744741    -0.71700
O90         O  0.40695012  0.26439062  0.83064671    -0.71700
O91         O  0.35839292  0.26360250  0.78427720    -0.71700
O92         O  0.39506137  0.19788644  0.80463641    -0.71800
V93         V  0.42196921  0.25971841  0.75861083     1.35200
V94         V  0.37790741  0.23145487  0.79351912     1.35200
C95         C  0.42376107  0.20034010  0.78999190     0.77600
C96         C  0.37490380  0.29001182  0.76305411     0.77600
C97         C  0.44010790  0.29019155  0.82446217     0.77500
C98         C  0.36071110  0.20116820  0.72690991     0.77500
O99         O  0.23331500  0.44051305  0.75281629    -0.71700
O100        O  0.29676340  0.39786273  0.76786902    -0.71900
O101        O  0.29798650  0.45097252  0.72662169    -0.71700
O102        O  0.23182012  0.38802315  0.79553491    -0.71700
O103        O  0.20186180  0.34436310  0.75683285    -0.71700
O104        O  0.26667828  0.40935382  0.68649243    -0.71700
O105        O  0.26667432  0.35675624  0.72718560    -0.71700
O106        O  0.20143186  0.39588211  0.71522290    -0.71800
V107        V  0.26436537  0.41843044  0.76006470     1.35200
V108        V  0.23474835  0.37736752  0.72226373     1.35200
C109        C  0.20663937  0.42520565  0.73102285     0.77600
C110        C  0.29298509  0.37038085  0.74921795     0.77600
C111        C  0.29339020  0.44152140  0.69490666     0.77500
C112        C  0.20524897  0.35560610  0.78818845     0.77500
O113        O  0.73786605  0.52605084  0.26888086    -0.71700
O114        O  0.67702788  0.57034401  0.24891627    -0.71900
O115        O  0.74090510  0.57604397  0.22236188    -0.71700
O116        O  0.67406222  0.51955210  0.29421388    -0.71700
O117        O  0.70676170  0.56369629  0.33197713    -0.71700
O118        O  0.77209157  0.62238489  0.25839131    -0.71700
O119        O  0.70812503  0.61376718  0.28772798    -0.71700
O120        O  0.77137272  0.57299058  0.30381768    -0.71800
V121        V  0.70810680  0.54894661  0.25922751     1.35200
V122        V  0.73906744  0.59235973  0.29470867     1.35200
C123        C  0.76526491  0.54251580  0.28974119     0.77600
C124        C  0.68152701  0.59893013  0.26611658     0.77600
C125        C  0.76811800  0.60861663  0.22787303     0.77500
C126        C  0.67872964  0.53178107  0.32512156     0.77500
O127        O  0.51930155  0.72780134  0.25180479    -0.71700
O128        O  0.56681616  0.66955505  0.27061236    -0.71900
O129        O  0.57210246  0.73350842  0.29653849    -0.71700
O130        O  0.51310721  0.66380664  0.22683367    -0.71700
O131        O  0.55537408  0.69519030  0.18782265    -0.71700
O132        O  0.61541543  0.76510484  0.25864875    -0.71700
O133        O  0.60859584  0.70104387  0.23132495    -0.71700
O134        O  0.56314370  0.75971777  0.21418835    -0.71800
V135        V  0.54371756  0.69925928  0.26077907     1.35200
V136        V  0.58484837  0.72968470  0.22383318     1.35200
C137        C  0.53345714  0.75362228  0.22943554     0.77600
C138        C  0.59552063  0.67507821  0.25333951     0.77600
C139        C  0.60353044  0.76150380  0.28968307     0.77500
C140        C  0.52372989  0.66761288  0.19556522     0.77500
O141        O  0.11453537  0.56811179  0.09866576    -0.71700
O142        O  0.07522022  0.63343070  0.07949227    -0.71900
O143        O  0.12467059  0.63322556  0.12507483    -0.71700
O144        O  0.06608314  0.56838707  0.05201234    -0.71700
O145        O  0.01996967  0.53779884  0.08763082    -0.71700
O146        O  0.07961755  0.60259703  0.16195413    -0.71700
O147        O  0.03071827  0.60274815  0.11683983    -0.71700
O148        O  0.06783827  0.53695148  0.13389148    -0.71800
V149        V  0.09419223  0.60018652  0.08942694     1.35200
V150        V  0.05038886  0.57055903  0.12428678     1.35200
C151        C  0.09752863  0.54146517  0.11984955     0.77600
C152        C  0.04666507  0.62956888  0.09595482     0.77600
C153        C  0.11235901  0.62932015  0.15576951     0.77500
C154        C  0.03332160  0.54167449  0.05711670     0.77500
O155        O  0.90531232  0.77921234  0.08255078    -0.71700
O156        O  0.96742320  0.73629457  0.10271656    -0.71900
O157        O  0.97153089  0.78943964  0.06027188    -0.71700
O158        O  0.90117455  0.72686346  0.12654889    -0.71700
O159        O  0.87238443  0.68315747  0.08754601    -0.71700
O160        O  0.94299345  0.74803041  0.01934846    -0.71700
O161        O  0.93907944  0.69493834  0.06162269    -0.71700
O162        O  0.87611532  0.73532197  0.04357030    -0.71800
V163        V  0.93574076  0.75699103  0.09233488     1.35200
V164        V  0.90811269  0.71605364  0.05389094     1.35200
C165        C  0.88040842  0.76443106  0.05906696     0.77600
C166        C  0.96456871  0.70903316  0.08436060     0.77600
C167        C  0.96945545  0.78012286  0.02864590     0.77500
C168        C  0.87424468  0.69490869  0.11867398     0.77500
O169        O  0.43702439  0.85359809  0.09832923    -0.71700
O170        O  0.54101461  0.88984431  0.07773636    -0.71900
O171        O  0.49004481  0.83879304  0.12125683    -0.71700
O172        O  0.48737935  0.90338195  0.05388050    -0.71700
O173        O  0.50666223  0.94868010  0.09185901    -0.71700
O174        O  0.50281800  0.88074466  0.16175063    -0.71700
O175        O  0.55603903  0.93072584  0.11978620    -0.71700
O176        O  0.45397865  0.90006494  0.13491945    -0.71800
V177        V  0.48918854  0.87222502  0.08855088     1.35200
V178        V  0.50456064  0.91421752  0.12634541     1.35200
C179        C  0.42807041  0.87155938  0.11984854     0.77600
C180        C  0.56621750  0.91623389  0.09604599     0.77600
C181        C  0.49628580  0.84807283  0.15296553     0.77500
C182        C  0.49680343  0.93703763  0.06078057     0.77500
O183        O  0.85545149  0.06508172  0.07626252    -0.71700
O184        O  0.75082019  0.99897206  0.09231259    -0.71900
O185        O  0.80332067  0.99918676  0.04986667    -0.71700
O186        O  0.80380187  0.06519049  0.11953016    -0.71700
O187        O  0.78948209  0.09453078  0.08127663    -0.71700
O188        O  0.78992845  0.02834699  0.01053604    -0.71700
O189        O  0.73767793  0.02803252  0.05278229    -0.71700
O190        O  0.84109201  0.09491330  0.03840860    -0.71800
V191        V  0.80299363  0.03268419  0.08380859     1.35200
V192        V  0.78976560  0.06088708  0.04653987     1.35200
C193        C  0.86582588  0.09127686  0.05445126     0.77600
C194        C  0.72638223  0.00171189  0.07444050     0.77600
C195        C  0.79694150  0.00253517  0.01840590     0.77500
C196        C  0.79735247  0.09144207  0.11250847     0.77500
O197        O  0.77437013  0.23419143  0.26087769    -0.71700
O198        O  0.87951487  0.29531265  0.24329100    -0.71900
O199        O  0.82283889  0.23180334  0.21479605    -0.71700
O200        O  0.83009305  0.29728069  0.28822331    -0.71700
O201        O  0.84600535  0.26708003  0.32418891    -0.71700
O202        O  0.83081698  0.19656062  0.25145780    -0.71700
O203        O  0.89001613  0.25918664  0.27681276    -0.71700
O204        O  0.78738395  0.20387973  0.29939588    -0.71800
V205        V  0.82701628  0.26401687  0.25236593     1.35200
V206        V  0.83836205  0.23229333  0.28722236     1.35200
C207        C  0.76348063  0.20947625  0.28424709     0.77600
C208        C  0.90252825  0.28716618  0.25709955     0.77600
C209        C  0.82426195  0.20230158  0.22057605     0.77500
C210        C  0.83945640  0.29367435  0.31853103     0.77500
O211        O  0.19269339  0.44158035  0.25071367    -0.71700
O212        O  0.08646855  0.39361666  0.26515904    -0.71900
O213        O  0.14353867  0.38554467  0.29064434    -0.71700
O214        O  0.13638633  0.45033321  0.22645800    -0.71700
O215        O  0.12741458  0.41137306  0.18401473    -0.71700
O216        O  0.13484113  0.34544739  0.24937762    -0.71700
O217        O  0.07858879  0.35427072  0.22340803    -0.71700
O218        O  0.18298690  0.40129707  0.20911249    -0.71800
V219        V  0.13950182  0.41690062  0.25748771     1.35200
V220        V  0.13104958  0.37881808  0.21730211     1.35200
C221        C  0.20560739  0.42906466  0.22732716     0.77600
C222        C  0.06436545  0.36605572  0.24598752     0.77600
C223        C  0.14171473  0.35510187  0.28119645     0.77500
C224        C  0.13105518  0.44250755  0.19444156     0.77500
O225        O  0.11192411  0.18903909  0.42974839    -0.71700
O226        O  0.21632699  0.22967533  0.40880890    -0.71900
O227        O  0.16758324  0.17964909  0.45475076    -0.71700
O228        O  0.16001138  0.23824635  0.38315223    -0.71700
O229        O  0.17677320  0.28468299  0.41954198    -0.71700
O230        O  0.17957193  0.22398363  0.49266849    -0.71700
O231        O  0.22977663  0.27293762  0.44829968    -0.71700
O232        O  0.12673223  0.23654323  0.46456798    -0.71800
V233        V  0.16428664  0.21000318  0.41979292     1.35200
V234        V  0.17790578  0.25364002  0.45550753     1.35200
C235        C  0.10177812  0.20653171  0.45058263     0.77600
C236        C  0.24078201  0.25805011  0.42568225     0.77600
C237        C  0.17449332  0.19149587  0.48585163     0.77500
C238        C  0.16719221  0.27156103  0.38891002     0.77500
O239        O  0.53048592  0.40946974  0.41157527    -0.71700
O240        O  0.42609987  0.34186112  0.42700528    -0.71900
O241        O  0.47864282  0.34386153  0.38382822    -0.71700
O242        O  0.47880455  0.40738922  0.45564614    -0.71700
O243        O  0.46367405  0.43732600  0.41882773    -0.71700
O244        O  0.46465636  0.37366882  0.34567972    -0.71700
O245        O  0.41248176  0.37173348  0.38870870    -0.71700
O246        O  0.51551002  0.43996525  0.37507621    -0.71800
V247        V  0.47815808  0.37621033  0.41881113     1.35200
V248        V  0.46437772  0.40512207  0.38280619     1.35200
C249        C  0.54052759  0.43662198  0.39090053     0.77600
C250        C  0.40147821  0.34498373  0.40980988     0.77600
C251        C  0.47124267  0.34736742  0.35275259     0.77500
C252        C  0.47211080  0.43368237  0.44970371     0.77500
O253        O  0.43616509  0.56552412  0.60083362    -0.71700
O254        O  0.54158930  0.62852279  0.58615066    -0.71900
O255        O  0.48674091  0.56435388  0.55704235    -0.71700
O256        O  0.49034604  0.62968022  0.62876485    -0.71700
O257        O  0.50533868  0.60009787  0.66631538    -0.71700
O258        O  0.49545180  0.53036535  0.59467046    -0.71700
O259        O  0.55186622  0.59372017  0.62160217    -0.71700
O260        O  0.44870408  0.53551960  0.64007233    -0.71800
V261        V  0.48893887  0.59638387  0.59385991     1.35200
V262        V  0.50003226  0.56551787  0.62997800     1.35200
C263        C  0.42487866  0.53995568  0.62339017     0.77600
C264        C  0.56459300  0.62137785  0.60149781     0.77600
C265        C  0.48967783  0.53581180  0.56344656     0.77500
C266        C  0.49977909  0.62707281  0.65931593     0.77500
O267        O  0.85351152  0.77294477  0.57668081    -0.71700
O268        O  0.74868754  0.73054956  0.59627138    -0.71900
O269        O  0.80584860  0.72364986  0.62302287    -0.71700
O270        O  0.79704177  0.78065404  0.55055029    -0.71700
O271        O  0.78304060  0.73487092  0.51371718    -0.71700
O272        O  0.79401321  0.67839206  0.58646680    -0.71700
O273        O  0.73725431  0.68500372  0.56009044    -0.71700
O274        O  0.83991900  0.72729654  0.53980926    -0.71800
V275        V  0.80101287  0.75111577  0.58593546     1.35200
V276        V  0.78884230  0.70737609  0.55070282     1.35200
C277        C  0.86427586  0.75657969  0.55516890     0.77600
C278        C  0.72520433  0.69992955  0.58162344     0.77600
C279        C  0.80226161  0.69164249  0.61719022     0.77500
C280        C  0.78791013  0.76736067  0.52009729     0.77500
O281        O  0.77236163  0.52309018  0.76471502    -0.71700
O282        O  0.87677537  0.56482850  0.74349871    -0.71900
O283        O  0.82868924  0.51418367  0.78866375    -0.71700
O284        O  0.81975056  0.57321737  0.71858601    -0.71700
O285        O  0.83235348  0.61788478  0.75607147    -0.71700
O286        O  0.84426362  0.55940857  0.82647325    -0.71700
O287        O  0.88968818  0.61029345  0.78037605    -0.71700
O288        O  0.78691166  0.56794840  0.80273597    -0.71800
V289        V  0.82470182  0.54475572  0.75453997     1.35200
V290        V  0.83798880  0.58795871  0.79072123     1.35200
C291        C  0.76211286  0.53878477  0.78745334     0.77600
C292        C  0.90091387  0.59477039  0.75863054     0.77600
C293        C  0.83858044  0.52674517  0.81921964     0.77500
C294        C  0.82352213  0.60515196  0.72521842     0.77500
O295        O  0.19158264  0.73398378  0.74199394    -0.71700
O296        O  0.08594883  0.67083872  0.75698175    -0.71900
O297        O  0.13680260  0.67176392  0.71197427    -0.71700
O298        O  0.14165641  0.73310464  0.78817432    -0.71700
O299        O  0.13135887  0.76843937  0.75360515    -0.71700
O300        O  0.12390051  0.70503921  0.67688770    -0.71700
O301        O  0.07563014  0.70650087  0.72298606    -0.71700
O302        O  0.17927407  0.76778359  0.70703034    -0.71800
V303        V  0.13873428  0.70308505  0.74919017     1.35200
V304        V  0.12776321  0.73626090  0.71583809     1.35200
C305        C  0.20306105  0.76162663  0.72165930     0.77600
C306        C  0.06262792  0.67785706  0.74197810     0.77600
C307        C  0.12902927  0.67742873  0.68175414     0.77500
C308        C  0.13834227  0.76178451  0.78398661     0.77500
O309        O  0.53352232  0.11320256  0.91334984    -0.71700
O310        O  0.42832341  0.06488797  0.93294049    -0.71900
O311        O  0.48734000  0.06149529  0.95943656    -0.71700
O312        O  0.47451527  0.11682136  0.88754635    -0.71700
O313        O  0.46340312  0.07217177  0.85022695    -0.71700
O314        O  0.47803479  0.01753420  0.92226069    -0.71700
O315        O  0.41933416  0.02048883  0.89623644    -0.71700
O316        O  0.52270287  0.06858740  0.87609175    -0.71800
V317        V  0.48080606  0.08830801  0.92261717     1.35200
V318        V  0.47118864  0.04568248  0.88689894     1.35200
C319        C  0.54576666  0.09866490  0.89132712     0.77600
C320        C  0.40602361  0.03401545  0.91799576     0.77600
C321        C  0.48466923  0.02990001  0.95333253     0.77500
C322        C  0.46576896  0.10355730  0.85702051     0.77500
O323        O  0.11683589  0.90075458  0.93528040    -0.71700
O324        O  0.22258314  0.96104680  0.92084391    -0.71900
O325        O  0.16646732  0.89837479  0.89106091    -0.71700
O326        O  0.17233449  0.96337530  0.96402808    -0.71700
O327        O  0.18642856  0.93237223  0.00075238    -0.71700
O328        O  0.17278778  0.86219736  0.92780479    -0.71700
O329        O  0.23144942  0.92426541  0.95490777    -0.71700
O330        O  0.12788284  0.86936981  0.97419715    -0.71800
V331        V  0.16980492  0.93021826  0.92842511     1.35200
V332        V  0.17943581  0.89767705  0.96373179     1.35200
C333        C  0.10471202  0.87515986  0.95786012     0.77600
C334        C  0.24496107  0.95263405  0.93559708     0.77600
C335        C  0.16749663  0.86867347  0.89673908     0.77500
C336        C  0.18113084  0.95969080  0.99452904     0.77500
O337        O  0.56308706  0.43756006  0.91459980    -0.71700
O338        O  0.62775073  0.54230512  0.93302077    -0.71900
O339        O  0.56223870  0.48775803  0.95919231    -0.71700
O340        O  0.62872871  0.49118922  0.88913862    -0.71700
O341        O  0.59879251  0.50440975  0.85037371    -0.71700
O342        O  0.53223146  0.50210875  0.92167877    -0.71700
O343        O  0.59792226  0.55513053  0.89380337    -0.71700
O344        O  0.53252463  0.45186063  0.87741614    -0.71800
V345        V  0.59490970  0.49005737  0.92328179     1.35200
V346        V  0.56594671  0.50311974  0.88658111     1.35200
C347        C  0.53626288  0.42716152  0.89320937     0.77600
C348        C  0.62420605  0.56649584  0.91568698     0.77600
C349        C  0.53519472  0.49312980  0.95251525     0.77500
C350        C  0.62550244  0.49859943  0.85799567     0.77500
O351        O  0.78074799  0.85670006  0.92740281    -0.71700
O352        O  0.73634820  0.75086368  0.91040770    -0.71900
O353        O  0.72818897  0.80705064  0.88392067    -0.71700
O354        O  0.78985725  0.80125554  0.95299643    -0.71700
O355        O  0.74893300  0.79265281  0.99297076    -0.71700
O356        O  0.68454334  0.79428469  0.92204765    -0.71700
O357        O  0.69588214  0.74100725  0.95127806    -0.71700
O358        O  0.73630196  0.84518073  0.96454680    -0.71800
V359        V  0.75793936  0.80366561  0.91941508     1.35200
V360        V  0.71718795  0.79342655  0.95692700     1.35200
C361        C  0.76520122  0.86864956  0.94858612     0.77600
C362        C  0.70887228  0.72792768  0.92874792     0.77600
C363        C  0.69613817  0.80240186  0.89096107     0.77500
C364        C  0.78057933  0.79651801  0.98467926     0.77500
O365        O  0.73951596  0.19828442  0.76204654    -0.71700
O366        O  0.67619083  0.09321317  0.74387130    -0.71900
O367        O  0.67530728  0.14368490  0.78883776    -0.71700
O368        O  0.74003728  0.14844818  0.71644951    -0.71700
O369        O  0.77111795  0.13396504  0.75265098    -0.71700
O370        O  0.70781017  0.13252990  0.82646943    -0.71700
O371        O  0.70718621  0.08126044  0.78260373    -0.71700
O372        O  0.77244711  0.18483797  0.79715743    -0.71800
V373        V  0.70830580  0.14559953  0.75350674     1.35200
V374        V  0.73901504  0.13340177  0.78899007     1.35200
C375        C  0.76740766  0.20917835  0.78223949     0.77600
C376        C  0.68081447  0.06947210  0.76081376     0.77600
C377        C  0.68022898  0.13725105  0.81985122     0.77500
C378        C  0.76689580  0.14251750  0.72202651     0.77500
O379        O  0.52971255  0.77935502  0.74714192    -0.71700
O380        O  0.57586214  0.88484222  0.76587162    -0.71900
O381        O  0.52149944  0.83591120  0.72365457    -0.71700
O382        O  0.58345514  0.82749354  0.79048486    -0.71700
O383        O  0.62610086  0.83950391  0.75145931    -0.71700
O384        O  0.56159059  0.84503757  0.68270348    -0.71700
O385        O  0.61599020  0.89472097  0.72476945    -0.71700
O386        O  0.57289773  0.79055351  0.70864196    -0.71800
V387        V  0.55353465  0.83219469  0.75605947     1.35200
V388        V  0.59343537  0.84233675  0.71769176     1.35200
C389        C  0.54401961  0.76725772  0.72476505     0.77600
C390        C  0.60322775  0.90786662  0.74751527     0.77600
C391        C  0.53023213  0.84137439  0.69189531     0.77500
C392        C  0.61493205  0.83112074  0.78263749     0.77500
O393        O  0.90355601  0.11156970  0.57710689    -0.71700
O394        O  0.96937884  0.21656680  0.59347526    -0.71900
O395        O  0.90419026  0.16311533  0.62107167    -0.71700
O396        O  0.96879711  0.16417915  0.55020044    -0.71700
O397        O  0.93940304  0.17885690  0.51208127    -0.71700
O398        O  0.87244154  0.17506595  0.58343042    -0.71700
O399        O  0.93755074  0.22879970  0.55619917    -0.71700
O400        O  0.87352617  0.12537450  0.53886189    -0.71800
V401        V  0.93588761  0.16415991  0.58477712     1.35200
V402        V  0.90634234  0.17676069  0.54836096     1.35200
C403        C  0.87714014  0.10090347  0.55522086     0.77600
C404        C  0.96477783  0.24071205  0.57717213     0.77600
C405        C  0.87674102  0.16784865  0.61451858     0.77500
C406        C  0.96582536  0.17249254  0.51932766     0.77500
O407        O  0.11594011  0.53111761  0.59756138    -0.71700
O408        O  0.07892732  0.42629938  0.58027314    -0.71900
O409        O  0.06702164  0.47974188  0.55277566    -0.71700
O410        O  0.12890880  0.47813265  0.62505255    -0.71700
O411        O  0.08393092  0.46330997  0.66236281    -0.71700
O412        O  0.02223348  0.46601480  0.58989844    -0.71700
O413        O  0.03428741  0.41295830  0.61770170    -0.71700
O414        O  0.07078715  0.51609840  0.63468176    -0.71800
V415        V  0.09692801  0.47850188  0.58968641     1.35200
V416        V  0.05380684  0.46493383  0.62547682     1.35200
C417        C  0.09847870  0.54119655  0.61840093     0.77600
C418        C  0.04999422  0.40193925  0.59605103     0.77600
C419        C  0.03438631  0.47404187  0.55901865     0.77500
C420        C  0.11683472  0.46971527  0.65583134     0.77500
O421        O  0.86075836  0.43703552  0.41552998    -0.71700
O422        O  0.89849278  0.54094282  0.43709176    -0.71900
O423        O  0.84778723  0.49094639  0.39209687    -0.71700
O424        O  0.91102582  0.48655850  0.46103768    -0.71700
O425        O  0.95520681  0.50161472  0.42292820    -0.71700
O426        O  0.89179538  0.50679626  0.35350485    -0.71700
O427        O  0.94242561  0.55553740  0.39857100    -0.71700
O428        O  0.90534172  0.45296029  0.37748523    -0.71800
V429        V  0.88038430  0.48918189  0.42573958     1.35200
V430        V  0.92277406  0.50387819  0.38885501     1.35200
C431        C  0.87714684  0.42757231  0.39292511     0.77600
C432        C  0.92685004  0.56580805  0.42109375     0.77600
C433        C  0.85901290  0.50004394  0.36122093     0.77500
C434        C  0.94374375  0.49299497  0.45393106     0.77500
O435        O  0.06162817  0.85638622  0.42915363    -0.71700
O436        O  0.99991644  0.74991106  0.41665972    -0.71900
O437        O  0.99824269  0.80268514  0.45751338    -0.71700
O438        O  0.06339500  0.80456346  0.38701982    -0.71700
O439        O  0.09833272  0.79833677  0.42539438    -0.71700
O440        O  0.02867872  0.78994764  0.49616147    -0.71700
O441        O  0.03519609  0.74178427  0.45322460    -0.71700
O442        O  0.09235138  0.84600152  0.46940823    -0.71800
V443        V  0.03144039  0.80311536  0.42320938     1.35200
V444        V  0.06305375  0.79418698  0.46025082     1.35200
C445        C  0.08705975  0.86890639  0.45222224     0.77600
C446        C  0.00685645  0.72758989  0.43351749     0.77600
C447        C  0.00172792  0.79539189  0.48858672     0.77500
C448        C  0.09281877  0.80344215  0.39392671     0.77500
O449        O  0.45110226  0.19730211  0.26639324    -0.71700
O450        O  0.40591410  0.09105573  0.25068153    -0.71900
O451        O  0.39946284  0.14758827  0.22202888    -0.71700
O452        O  0.45835473  0.14154540  0.29436792    -0.71700
O453        O  0.41368577  0.12875455  0.33157380    -0.71700
O454        O  0.35693983  0.14070124  0.25951469    -0.71700
O455        O  0.36104677  0.08262850  0.28606580    -0.71700
O456        O  0.40829257  0.18665061  0.30514595    -0.71800
V457        V  0.42788203  0.14411539  0.25907092     1.35200
V458        V  0.38589911  0.13485076  0.29490118     1.35200
C459        C  0.43685024  0.20977454  0.28848895     0.77600
C460        C  0.37511518  0.06888961  0.26536975     0.77600
C461        C  0.36869850  0.14639413  0.22838935     0.77500
C462        C  0.44603180  0.13353682  0.32504485     0.77500
O463        O  0.23353499  0.77779588  0.24717361    -0.71700
O464        O  0.29695145  0.88358044  0.26327588    -0.71900
O465        O  0.23321278  0.82827141  0.29228434    -0.71700
O466        O  0.29714456  0.83221625  0.21929737    -0.71700
O467        O  0.26631908  0.84660895  0.18251397    -0.71700
O468        O  0.19886178  0.83758389  0.25555744    -0.71700
O469        O  0.26194504  0.89404349  0.22821384    -0.71700
O470        O  0.20219128  0.79036478  0.20936650    -0.71800
V471        V  0.26460033  0.83075723  0.25487382     1.35200
V472        V  0.23299342  0.84192064  0.21961528     1.35200
C473        C  0.20690001  0.76636753  0.22537484     0.77600
C474        C  0.29010815  0.90686734  0.24808311     0.77600
C475        C  0.20431249  0.83080072  0.28647077     0.77500
C476        C  0.29334035  0.84087372  0.18880896     0.77500
O477        O  0.19530019  0.10392111  0.08709706    -0.71700
O478        O  0.23056073  0.20851087  0.10497928    -0.71900
O479        O  0.17868227  0.15524061  0.06322639    -0.71700
O480        O  0.24623438  0.15679457  0.13009481    -0.71700
O481        O  0.28974637  0.17372314  0.09096818    -0.71700
O482        O  0.21954383  0.16780081  0.02222280    -0.71700
O483        O  0.27072501  0.22210878  0.06305588    -0.71700
O484        O  0.23980671  0.11970784  0.04903022    -0.71800
V485        V  0.21352064  0.15637800  0.09561067     1.35200
V486        V  0.25414709  0.17053580  0.05710406     1.35200
C487        C  0.21219234  0.09433158  0.06503134     0.77600
C488        C  0.25639479  0.23310673  0.08621056     0.77600
C489        C  0.18711749  0.16122332  0.03147193     0.77500
C490        C  0.27943961  0.16559746  0.12238496     0.77500
O491        O  0.40030560  0.52274219  0.10276129    -0.71700
O492        O  0.33522824  0.41851275  0.08340011    -0.71900
O493        O  0.33544135  0.46912578  0.12845474    -0.71700
O494        O  0.40048188  0.47304148  0.05687822    -0.71700
O495        O  0.42961783  0.45626169  0.09310346    -0.71700
O496        O  0.36690895  0.45716099  0.16658068    -0.71700
O497        O  0.36421819  0.40483936  0.12280421    -0.71700
O498        O  0.43243208  0.50797909  0.13762881    -0.71800
V499        V  0.36842698  0.47047918  0.09352909     1.35200
V500        V  0.39774136  0.45678485  0.12925593     1.35200
C501        C  0.42770779  0.53284492  0.12334829     0.77600
C502        C  0.33801538  0.39397602  0.10084579     0.77600
C503        C  0.34001605  0.46286018  0.15962167     0.77500
C504        C  0.42668132  0.46610659  0.06262552     0.77500
C505        C  0.27076727  0.27407479  0.09038066     0.00000
C506        C  0.28446281  0.29657601  0.06056697    -0.11900
C507        C  0.30446753  0.33583396  0.06316471     0.02200
C508        C  0.31170940  0.35334364  0.09616117    -0.00100
C509        C  0.29629336  0.33111870  0.12582459    -0.11800
C510        C  0.27540081  0.29180156  0.12316121     0.02100
H511        H  0.28068210  0.28337767  0.03512526     0.15100
H512        H  0.30137471  0.34453375  0.15128226     0.15100
C513        C  0.26092809  0.27054694  0.15462802     0.36700
C514        C  0.31977017  0.35735233  0.03190561     0.36600
N515        N  0.24916237  0.25380049  0.17999874    -0.43600
N516        N  0.33214545  0.37468447  0.00691828    -0.43600
C517        C  0.30456303  0.16448997  0.14950980     0.00000
C518        C  0.33316166  0.15701339  0.13954895    -0.11900
C519        C  0.35439716  0.15092467  0.16448678     0.02200
C520        C  0.34738786  0.15260807  0.20047137    -0.00100
C521        C  0.31967811  0.16143188  0.21031258    -0.11800
C522        C  0.29847605  0.16743624  0.18546815     0.02100
H523        H  0.33804051  0.15447139  0.11212591     0.15100
H524        H  0.31447843  0.16376900  0.23769608     0.15100
C525        C  0.27090650  0.17685379  0.19800751     0.36700
C526        C  0.38206569  0.14160873  0.15207956     0.36600
N527        N  0.24883783  0.18421447  0.20848556    -0.43600
N528        N  0.40415751  0.13410041  0.14195428    -0.43600
C529        C  0.35466501  0.02781904  0.25854740     0.00000
C530        C  0.37296491  0.00667191  0.26122680    -0.11900
C531        C  0.35270793  0.96715073  0.25846128     0.02200
C532        C  0.31346709  0.94830204  0.25285515    -0.00100
C533        C  0.29568916  0.96982517  0.24920528    -0.11800
C534        C  0.31572671  0.00896463  0.25193915     0.02100
H535        H  0.40291318  0.02094852  0.26614383     0.15100
H536        H  0.26575900  0.95597757  0.24420000     0.15100
C537        C  0.29575478  0.02928886  0.24674227     0.36700
C538        C  0.37299590  0.94683580  0.26008933     0.36600
N539        N  0.27986379  0.04562542  0.24240486    -0.43600
N540        N  0.38928836  0.93054841  0.26118118    -0.43600
C541        C  0.12063100  0.80941586  0.36596523     0.00000
C542        C  0.15462102  0.81121279  0.37495981    -0.11900
C543        C  0.18239174  0.81847217  0.34996429     0.02200
C544        C  0.17674047  0.82457189  0.31474223    -0.00100
C545        C  0.14278100  0.82281033  0.30581230    -0.11800
C546        C  0.11487674  0.81512806  0.33064931     0.02100
H547        H  0.15973678  0.80707579  0.40178293     0.15100
H548        H  0.13758286  0.82691695  0.27900265     0.15100
C549        C  0.08060506  0.81299781  0.31853650     0.36700
C550        C  0.21619599  0.81931842  0.36162147     0.36600
N551        N  0.05319729  0.81124701  0.30861819    -0.43600
N552        N  0.24313922  0.81980616  0.37115109    -0.43600
C553        C  0.94261201  0.60619854  0.42832207     0.00000
C554        C  0.93231034  0.62723523  0.40713659    -0.11900
C555        C  0.95182608  0.66670852  0.40877892     0.02200
C556        C  0.98294130  0.68578352  0.43150858    -0.00100
C557        C  0.99195281  0.66414237  0.45362832    -0.11800
C558        C  0.97217211  0.62488412  0.45220611     0.02100
H559        H  0.90965794  0.61278026  0.38850691     0.15100
H560        H  0.01507527  0.67783041  0.47187463     0.15100
C561        C  0.98352873  0.60431893  0.47472586     0.36700
C562        C  0.93955107  0.68654313  0.38642134     0.36600
N563        N  0.99263012  0.58790625  0.49282172    -0.43600
N564        N  0.92942728  0.70226664  0.36854997    -0.43600
C565        C  0.01145458  0.47825568  0.53139660     0.00000
C566        C  0.98225465  0.48474907  0.54162184    -0.11900
C567        C  0.96064418  0.49062590  0.51709033     0.02200
C568        C  0.96752352  0.48945103  0.48107674    -0.00100
C569        C  0.99702599  0.48342626  0.47077971    -0.11800
C570        C  0.01890329  0.47785761  0.49538098     0.02100
H571        H  0.97670796  0.48610896  0.56908363     0.15100
H572        H  0.00272575  0.48245361  0.44330514     0.15100
C573        C  0.04810647  0.47094368  0.48263157     0.36700
C574        C  0.93266292  0.49930673  0.52994525     0.36600
N575        N  0.07143727  0.46537069  0.47226481    -0.43600
N576        N  0.91042581  0.50648240  0.54033036    -0.43600
C577        C  0.03297027  0.36139535  0.58852660     0.00000
C578        C  0.03753049  0.33815020  0.61219732    -0.11900
C579        C  0.01664881  0.29878186  0.60878810    -0.08600
C580        C  0.99011160  0.28210115  0.58147170    -0.00100
C581        C  0.98652336  0.30586233  0.55746776    -0.11800
C582        C  0.00740806  0.34494708  0.56086653     0.02100
H583        H  0.05667350  0.35079655  0.63397621     0.15100
H584        H  0.96661430  0.29395098  0.53617108     0.15100
C585        C  0.00048984  0.36758603  0.53674341     0.36700
C586        C  0.02214563  0.27652151  0.63441940     0.36600
N587        N  0.99462585  0.38553066  0.51746964    -0.43600
N588        N  0.02667937  0.25877769  0.65500502    -0.43600
C589        C  0.84945512  0.16312679  0.64236134     0.00000
C590        C  0.81338858  0.15574444  0.63292266    -0.11900
C591        C  0.78568538  0.14786965  0.65809610     0.02200
C592        C  0.79389492  0.14753687  0.69384714    -0.00100
C593        C  0.82991072  0.15489414  0.70321736    -0.11800
C594        C  0.85767223  0.16312721  0.67814643     0.02100
H595        H  0.80644832  0.15529041  0.60564865     0.15100
H596        H  0.83683877  0.15516707  0.73046560     0.15100
C597        C  0.89462612  0.17268760  0.69031897     0.36700
C598        C  0.74886720  0.13907487  0.64615586     0.36600
N599        N  0.92423603  0.18049971  0.70019383    -0.43600
N600        N  0.71937462  0.13190151  0.63645375    -0.43600
C601        C  0.61997927  0.94931677  0.75109598     0.00000
C602        C  0.64046568  0.97166006  0.72272018    -0.11900
C603        C  0.65872019  0.01088991  0.72469497     0.02200
C604        C  0.65683270  0.02868027  0.75553389    -0.00100
C605        C  0.63581930  0.00671132  0.78369384    -0.11800
C606        C  0.61707110  0.96732771  0.78164843     0.02100
H607        H  0.64280238  0.95847831  0.69890701     0.15100
H608        H  0.63478528  0.02044132  0.80766750     0.15100
C609        C  0.59656909  0.94645137  0.81178637     0.36700
C610        C  0.68121747  0.03224701  0.69556342     0.36600
N611        N  0.58011808  0.92988728  0.83602095    -0.43600
N612        N  0.69937196  0.04920045  0.67221904    -0.43600
C613        C  0.63664570  0.82414174  0.80970239     0.00000
C614        C  0.61869990  0.80832062  0.84145321    -0.11900
C615        C  0.63686235  0.80027340  0.86796443     0.02200
C616        C  0.67417828  0.80811799  0.86325823    -0.00100
C617        C  0.69202688  0.82357854  0.83136927    -0.11800
C618        C  0.67382002  0.83159010  0.80481332     0.02100
H619        H  0.58998096  0.80183348  0.84570634     0.15100
H620        H  0.72074793  0.83005356  0.82716103     0.15100
C621        C  0.69442352  0.84798753  0.77325177     0.36700
C622        C  0.61611927  0.78367025  0.89941964     0.36600
N623        N  0.71111419  0.86114284  0.74803304    -0.43600
N624        N  0.59933957  0.77033731  0.92455512    -0.43600
C625        C  0.64997915  0.60731526  0.91993582     0.00000
C626        C  0.66399675  0.62921940  0.88987343    -0.11900
C627        C  0.68492009  0.66853463  0.89205034     0.02200
C628        C  0.69166784  0.68661989  0.92484350    -0.00100
C629        C  0.67849922  0.66456782  0.95495086    -0.11800
C630        C  0.65798733  0.62526741  0.95277169     0.02100
H631        H  0.65776093  0.61554153  0.86448467     0.15100
H632        H  0.68342973  0.67817020  0.98030841     0.15100
C633        C  0.64305647  0.60420322  0.98431657     0.36700
C634        C  0.69671747  0.68957551  0.86018055     0.36600
N635        N  0.63088858  0.58729145  0.00955362    -0.43600
N636        N  0.70604009  0.70639903  0.83460497    -0.43600
C637        C  0.50721562  0.48703325  0.98027534     0.00000
C638        C  0.50736882  0.46812988  0.01061854    -0.11900
C639        C  0.48118072  0.46014455  0.03732306     0.02200
C640        C  0.45389570  0.47139971  0.03435292    -0.00100
C641        C  0.45354641  0.49006391  0.00389477    -0.11800
C642        C  0.47964730  0.49788849  0.97709358     0.02100
H643        H  0.52783121  0.45893218  0.01345201     0.15100
H644        H  0.43304916  0.49921545  0.00106372     0.15100
C645        C  0.47766774  0.51771842  0.94711146     0.36700
C646        C  0.48279540  0.43972428  0.06700107     0.36600
N647        N  0.47591292  0.53363524  0.92316859    -0.43600
N648        N  0.48415446  0.42325155  0.09067169    -0.43600
C649        C  0.18557507  0.98789865  0.02115645     0.00000
C650        C  0.15819549  0.99886607  0.02246116    -0.11900
C651        C  0.16496880  0.03187787  0.03974019     0.02200
C652        C  0.19981864  0.05474426  0.05606659    -0.00100
C653        C  0.22630446  0.04246816  0.05685408    -0.11800
C654        C  0.21932624  0.00909500  0.03980532     0.02100
H655        H  0.13231088  0.98283207  0.00789633     0.15100
H656        H  0.25340281  0.06018036  0.06897044     0.15100
C657        C  0.24859297  0.99928980  0.03884827     0.36700
C658        C  0.13738743  0.04367176  0.03666426     0.36600
N659        N  0.27201929  0.99138867  0.03803179    -0.43600
N660        N  0.11495008  0.05264370  0.03359765    -0.43600
C661        C  0.58578425  0.11576092  0.88233744     0.00000
C662        C  0.60369036  0.09459130  0.88745101    -0.11900
C663        C  0.63732925  0.10369811  0.87031892     0.02200
C664        C  0.65264070  0.13367350  0.84660600    -0.00100
C665        C  0.63647687  0.15679861  0.84406175    -0.11800
C666        C  0.60356831  0.14839131  0.86210673     0.02100
H667        H  0.59014143  0.06953150  0.90319861     0.15100
H668        H  0.64845558  0.18033895  0.82639341     0.15100
C669        C  0.58719003  0.17205606  0.85730852     0.36700
C670        C  0.65345256  0.07977134  0.87508794     0.36600
N671        N  0.57464587  0.19157140  0.85362669    -0.43600
N672        N  0.66642375  0.06066271  0.87912337    -0.43600
C673        C  0.36517188  0.01358187  0.92502108     0.00000
C674        C  0.34565839  0.03344536  0.92942413    -0.11900
C675        C  0.30631854  0.01431264  0.93207056     0.02200
C676        C  0.28607753  0.97467125  0.93085482    -0.00100
C677        C  0.30578587  0.95497619  0.92784182    -0.11800
C678        C  0.34480747  0.97389342  0.92486125     0.02100
H679        H  0.36103145  0.06389154  0.92982393     0.15100
H680        H  0.29055194  0.92450864  0.92774975     0.15100
C681        C  0.36332291  0.95175761  0.92281557     0.36700
C682        C  0.28751552  0.03580113  0.93740952     0.36600
N683        N  0.37822105  0.93410206  0.92128465    -0.43600
N684        N  0.27232926  0.05289873  0.94187585    -0.43600
C685        C  0.12280079  0.64965098  0.65431825     0.00000
C686        C  0.15268072  0.64423170  0.64403400    -0.11900
C687        C  0.14582100  0.61039660  0.62804407     0.02200
C688        C  0.10853905  0.58086802  0.62421859    -0.00100
C689        C  0.07903080  0.58811720  0.63101043    -0.11800
C690        C  0.08589353  0.62230771  0.64558048     0.02100
H691        H  0.18121513  0.66550395  0.65037767     0.15100
H692        H  0.05024073  0.56608174  0.62691065     0.15100
C693        C  0.05430726  0.62702208  0.65479656     0.36700
C694        C  0.17730926  0.60613455  0.61768085     0.36600
N695        N  0.02894429  0.63072817  0.66207911    -0.43600
N696        N  0.20277282  0.60335597  0.60871614    -0.43600
C697        C  0.14443372  0.78801458  0.81349053     0.00000
C698        C  0.15504338  0.82532300  0.80588476    -0.11900
C699        C  0.16390038  0.85218149  0.83231622     0.02200
C700        C  0.16132692  0.84180376  0.86771352    -0.00100
C701        C  0.15064325  0.80440990  0.87539993    -0.11800
C702        C  0.14223896  0.77759687  0.84882063     0.02100
H703        H  0.15739291  0.83392735  0.77897883     0.15100
H704        H  0.14812691  0.79582669  0.90232406     0.15100
C705        C  0.13040213  0.73948203  0.85879138     0.36700
C706        C  0.17668401  0.89037194  0.82191551     0.36600
N707        N  0.12088392  0.70895942  0.86687522    -0.43600
N708        N  0.18702553  0.92093746  0.81341893    -0.43600
C709        C  0.72238604  0.52376117  0.79713919     0.00000
C710        C  0.70361781  0.48941791  0.81444610    -0.11900
C711        C  0.66998355  0.47900170  0.83221091     0.02200
C712        C  0.65439262  0.50298612  0.83231563    -0.00100
C713        C  0.67124519  0.53545734  0.81199732    -0.11800
C714        C  0.70523226  0.54616488  0.79478181     0.02100
H715        H  0.71654463  0.47200432  0.81617749     0.15100
H716        H  0.65947292  0.55399925  0.81177298     0.15100
C717        C  0.72286091  0.58103012  0.77596734     0.36700
C718        C  0.65267811  0.44420531  0.85114486     0.36600
N719        N  0.73699463  0.60889528  0.76077689    -0.43600
N720        N  0.63881216  0.41628155  0.86624782    -0.43600
C721        C  0.94144082  0.61272852  0.75087791     0.00000
C722        C  0.96344073  0.59907346  0.76582905    -0.11900
C723        C  0.00289459  0.61925005  0.76327716     0.02200
C724        C  0.02094330  0.65398017  0.74559954    -0.00100
C725        C  0.99830936  0.66669835  0.72995647    -0.11800
C726        C  0.95921178  0.64661736  0.73253627     0.02100
H727        H  0.94984203  0.57317931  0.78039450     0.15100
H728        H  0.01111480  0.69288664  0.71585787     0.15100
C729        C  0.93776342  0.66156092  0.71632989     0.36700
C730        C  0.02384344  0.60366123  0.77919259     0.36600
N731        N  0.92056245  0.67345675  0.70327831    -0.43600
N732        N  0.04054469  0.59103164  0.79193431    -0.43600
C733        C  0.90410856  0.77063122  0.54713342     0.00000
C734        C  0.92515438  0.80629650  0.53265810    -0.11900
C735        C  0.95910398  0.81637148  0.51572359     0.02200
C736        C  0.97288174  0.79087673  0.51414703    -0.00100
C737        C  0.95369217  0.75680767  0.53186175    -0.11800
C738        C  0.91919349  0.74627593  0.54783619     0.02100
H739        H  0.91361087  0.82502963  0.53201180     0.15100
H740        H  0.96394459  0.73700173  0.53060279     0.15100
C741        C  0.89869226  0.70947606  0.56311943     0.36700
C742        C  0.97816929  0.85214810  0.49849488     0.36600
N743        N  0.88210164  0.67999106  0.57529666    -0.43600
N744        N  0.99314067  0.88081076  0.48464347    -0.43600
C745        C  0.80771271  0.67016960  0.64547437     0.00000
C746        C  0.79314269  0.63138109  0.64087184    -0.11900
C747        C  0.79761544  0.60973804  0.66635044     0.02200
C748        C  0.81752609  0.62687173  0.69750357    -0.00100
C749        C  0.83191383  0.66565648  0.70223976    -0.11800
C750        C  0.82736818  0.68731687  0.67672689     0.02100
H751        H  0.77769727  0.61764626  0.61731062     0.15100
H752        H  0.84733973  0.67934522  0.72581660     0.15100
C753        C  0.84428516  0.72722449  0.68312259     0.36700
C754        C  0.78030343  0.56979968  0.65994054     0.36600
N755        N  0.85792532  0.75920068  0.68833478    -0.43600
N756        N  0.76628878  0.53780194  0.65469347    -0.43600
C757        C  0.60552540  0.64321428  0.59597221     0.00000
C758        C  0.62456663  0.62291684  0.59288404    -0.11900
C759        C  0.66342535  0.64108693  0.58951663     0.02200
C760        C  0.68444863  0.68074806  0.58904118    -0.00100
C761        C  0.66562443  0.70135862  0.59323575    -0.11800
C762        C  0.62629100  0.68284253  0.59664744     0.02100
H763        H  0.60889199  0.59244913  0.59315802     0.15100
H764        H  0.68149434  0.73178478  0.59316728     0.15100
C765        C  0.60807468  0.70483365  0.60238103     0.36700
C766        C  0.68102610  0.61808804  0.58762005     0.36600
N767        N  0.59336319  0.72232626  0.60724473    -0.43600
N768        N  0.69509081  0.59965716  0.58614072    -0.43600
C769        C  0.50659102  0.65704817  0.68470510     0.00000
C770        C  0.48210752  0.67176081  0.68468579    -0.11900
C771        C  0.49252363  0.70665899  0.70019256     0.02200
C772        C  0.52781350  0.72709229  0.71643550    -0.00100
C773        C  0.55123548  0.71130394  0.71849213    -0.11800
C774        C  0.54098684  0.67655114  0.70275880     0.02100
H775        H  0.45597564  0.65725401  0.67023475     0.15100
H776        H  0.57875851  0.72740807  0.73034880     0.15100
C777        C  0.56823562  0.66401221  0.70171749     0.36700
C778        C  0.46866615  0.72285873  0.69532155     0.36600
N779        N  0.59019481  0.65414448  0.70058519    -0.43600
N780        N  0.44967825  0.73591445  0.69101448    -0.43600
C781        C  0.47568210  0.45987999  0.47847869     0.00000
C782        C  0.49646657  0.46157199  0.50821784    -0.11900
C783        C  0.50179628  0.48617312  0.53599114     0.02200
C784        C  0.48554275  0.50943050  0.53477179    -0.00100
C785        C  0.46492359  0.50792719  0.50503403    -0.11800
C786        C  0.46004156  0.48371099  0.47700796     0.02100
H787        H  0.50947653  0.44416986  0.50954533     0.15100
H788        H  0.45227689  0.52565844  0.50368903     0.15100
C789        C  0.43846814  0.48376154  0.44745948     0.36700
C790        C  0.52571789  0.48829484  0.56441398     0.36600
N791        N  0.42125611  0.48399367  0.42378268    -0.43600
N792        N  0.54515627  0.49019094  0.58701329    -0.43600
C793        C  0.46831463  0.31920457  0.32670599     0.00000
C794        C  0.49380897  0.30583144  0.32906392    -0.11900
C795        C  0.48605334  0.27169627  0.31341262     0.02200
C796        C  0.45205370  0.25019666  0.29535586    -0.00100
C797        C  0.42825191  0.26519817  0.29022221    -0.11800
C798        C  0.43631178  0.29969464  0.30535985     0.02100
H799        H  0.51859720  0.32079122  0.34528607     0.15100
H800        H  0.40202001  0.24869827  0.27629232     0.15100
C801        C  0.40931122  0.31225861  0.30163471     0.36700
C802        C  0.51168136  0.25782478  0.31918248     0.36600
N803        N  0.38766243  0.32230041  0.29851272    -0.43600
N804        N  0.53270441  0.24731147  0.32398884    -0.43600
C805        C  0.06208460  0.19297610  0.45965139     0.00000
C806        C  0.04924483  0.21898033  0.45940733    -0.11900
C807        C  0.01561278  0.21116228  0.47576933     0.02200
C808        C  0.99466264  0.17709117  0.49358966    -0.00100
C809        C  0.00612802  0.15000007  0.49177679    -0.11800
C810        C  0.03925320  0.15741391  0.47444369     0.02100
H811        H  0.06663337  0.24636840  0.44801232     0.15100
H812        H  0.99010252  0.12369368  0.50537601     0.15100
C813        C  0.05056929  0.12925227  0.47463911     0.36700
C814        C  0.00529331  0.24008706  0.47692708     0.36600
N815        N  0.05921790  0.10635416  0.47466409    -0.43600
N816        N  0.99700400  0.26325014  0.47788731    -0.43600
C817        C  0.28153309  0.27453399  0.41963962     0.00000
C818        C  0.30492790  0.28035670  0.44837521    -0.11900
C819        C  0.34410462  0.30166206  0.44556233     0.02200
C820        C  0.36058934  0.31836268  0.41354367    -0.00100
C821        C  0.33707486  0.31144572  0.38450581    -0.11800
C822        C  0.29793123  0.28955044  0.38723250     0.02100
H823        H  0.29243122  0.26913479  0.47343886     0.15100
H824        H  0.34926869  0.32397325  0.35970428     0.15100
C825        C  0.27514031  0.28518077  0.35709783     0.36700
C826        C  0.36640374  0.30799286  0.47649022     0.36600
N827        N  0.25686923  0.28175099  0.33297496    -0.43600
N828        N  0.38425130  0.31308419  0.50131239    -0.43600
C829        C  0.24592078  0.44585795  0.22006680     0.00000
C830        C  0.26343621  0.42475406  0.22753556    -0.11900
C831        C  0.29692753  0.43225695  0.21089878     0.02200
C832        C  0.31292884  0.46110611  0.18607437    -0.00100
C833        C  0.29737451  0.48449464  0.18149989    -0.11800
C834        C  0.26398903  0.47693683  0.19796951     0.02100
H835        H  0.24933148  0.40047923  0.24420272     0.15100
H836        H  0.30968399  0.50695156  0.16268299     0.15100
C837        C  0.24673932  0.49870393  0.18818622     0.36700
C838        C  0.31180976  0.40746722  0.21693595     0.36600
N839        N  0.23355479  0.51647562  0.17942974    -0.43600
N840        N  0.32368799  0.38756104  0.22185016    -0.43600
C841        C  0.16316182  0.29384607  0.36052852     0.00000
C842        C  0.14443208  0.27534765  0.32955559    -0.11900
C843        C  0.13764845  0.29446768  0.30296867     0.02200
C844        C  0.14907516  0.33291753  0.30728486    -0.00100
C845        C  0.16893114  0.35161075  0.33768200    -0.11800
C846        C  0.17646766  0.33280698  0.36382937     0.02100
H847        H  0.13445459  0.24557555  0.32619151     0.15100
H848        H  0.17917178  0.38145035  0.34098846     0.15100
C849        C  0.19888345  0.35472070  0.39314322     0.36700
C850        C  0.11830448  0.27365693  0.27201803     0.36600
N851        N  0.21710999  0.37244898  0.41643901    -0.43600
N852        N  0.10297602  0.25694356  0.24715143    -0.43600
C853        C  0.94329026  0.30898941  0.25081567     0.00000
C854        C  0.96404413  0.34614159  0.26315573    -0.11900
C855        C  0.00351553  0.36542721  0.26236097     0.02200
C856        C  0.02274545  0.34736116  0.24888570    -0.00100
C857        C  0.00152615  0.31044575  0.23575917    -0.11800
C858        C  0.96234540  0.29129640  0.23673320     0.02100
H859        H  0.94943430  0.35970673  0.27434632     0.15100
H860        H  0.01558089  0.29616993  0.22490395     0.15100
C861        C  0.94211832  0.25347807  0.22275341     0.36700
C862        C  0.02333815  0.40378515  0.27486313     0.36600
N863        N  0.92579395  0.22325663  0.21144453    -0.43600
N864        N  0.03915891  0.43457420  0.28482125    -0.43600
C865        C  0.84412908  0.32147858  0.34563963     0.00000
C866        C  0.87801699  0.33980201  0.36413142    -0.11900
C867        C  0.88814153  0.37329050  0.38238436     0.02200
C868        C  0.86357480  0.38809718  0.38312409    -0.00100
C869        C  0.82797164  0.36751620  0.36802237    -0.11800
C870        C  0.81826081  0.33465138  0.34890065     0.02100
H871        H  0.89794472  0.32979597  0.36186892     0.15100
H872        H  0.80901465  0.37879664  0.36858705     0.15100
C873        C  0.78248071  0.31625311  0.33121642     0.36700
C874        C  0.92465010  0.39303523  0.39865517     0.36600
N875        N  0.75384920  0.30186294  0.31697456    -0.43600
N876        N  0.95391030  0.40883128  0.41168264    -0.43600
C877        C  0.81702492  0.17445865  0.19222474     0.00000
C878        C  0.80478293  0.13709276  0.20128382    -0.11900
C879        C  0.79659091  0.10937590  0.17580343     0.02200
C880        C  0.80093854  0.11876331  0.14011732    -0.00100
C881        C  0.81208048  0.15586844  0.13093291    -0.11800
C882        C  0.82042958  0.18370906  0.15646160     0.02100
H883        H  0.80104836  0.12926566  0.22848661     0.15100
H884        H  0.81552305  0.16349413  0.10369314     0.15100
C885        C  0.83386374  0.22168966  0.14502093     0.36700
C886        C  0.78263889  0.07128858  0.18716048     0.36600
N887        N  0.84471269  0.25211162  0.13577834    -0.43600
N888        N  0.77131040  0.04075096  0.19627197    -0.43600
C889        C  0.77989523  0.90877586  0.95610654     0.00000
C890        C  0.81284549  0.92802481  0.97575482    -0.11900
C891        C  0.82082193  0.96093245  0.99406050     0.02200
C892        C  0.79568919  0.97510051  0.99238267    -0.00100
C893        C  0.76513448  0.95820809  0.96941288    -0.11800
C894        C  0.75686228  0.92496362  0.95159894     0.02100
H895        H  0.83060721  0.91564870  0.97926877     0.15100
H896        H  0.74588815  0.96905765  0.96770290     0.15100
C897        C  0.72324969  0.90652142  0.93059949     0.36700
C898        C  0.85399075  0.97859333  0.01568305     0.36600
N899        N  0.69636675  0.89171497  0.91372136    -0.43600
N900        N  0.88060122  0.99262037  0.03296788    -0.43600
C901        C  0.38868993  0.86009973  0.12866828     0.00000
C902        C  0.37854722  0.88816655  0.13124831    -0.11900
C903        C  0.34517975  0.88125612  0.14769662     0.02200
C904        C  0.32163070  0.84585483  0.16239975    -0.00100
C905        C  0.33040203  0.81707750  0.15768830    -0.11800
C906        C  0.36341241  0.82377869  0.14065974     0.02100
H907        H  0.39783888  0.91623007  0.12217620     0.15100
H908        H  0.31250931  0.78987932  0.16923043     0.15100
C909        C  0.37230923  0.79393450  0.13912052     0.36700
C910        C  0.33771425  0.91195018  0.15236852     0.36600
N911        N  0.37895084  0.76964029  0.13814041    -0.43600
N912        N  0.33169195  0.93650080  0.15622531    -0.43600
C913        C  0.49535265  0.96148102  0.03301085     0.00000
C914        C  0.49682299  0.99542267  0.04234964    -0.11900
C915        C  0.49322776  0.01812225  0.01727028     0.02200
C916        C  0.48894430  0.00750518  0.98154740    -0.00100
C917        C  0.48796193  0.97380772  0.97227826    -0.11800
C918        C  0.49075942  0.95079874  0.99727819     0.02100
H919        H  0.49975896  0.00385400  0.06954602     0.15100
H920        H  0.48456290  0.96495053  0.94517849     0.15100
C921        C  0.48844683  0.91626695  0.98495519     0.36700
C922        C  0.49273317  0.05131763  0.02944950     0.36600
N923        N  0.48626883  0.88854204  0.97485329    -0.43600
N924        N  0.49207440  0.07772177  0.03945708    -0.43600
C925        C  0.60690602  0.93159607  0.08970891     0.00000
C926        C  0.62113445  0.94331292  0.05616571    -0.11900
C927        C  0.65991910  0.96519984  0.05048085     0.02200
C928        C  0.68543768  0.97523863  0.07868844    -0.00100
C929        C  0.67119898  0.96106711  0.11179247    -0.11800
C930        C  0.63237104  0.93979390  0.11754294     0.02100
H931        H  0.60184253  0.93712718  0.03463778     0.15100
H932        H  0.69033845  0.96799205  0.13356727     0.15100
C933        C  0.61926212  0.92692355  0.15236235     0.36700
C934        C  0.67264757  0.97716979  0.01539971     0.36600
N935        N  0.60876997  0.91654261  0.18024569    -0.43600
N936        N  0.68278415  0.98678772  0.98727890    -0.43600
C937        C  0.85805582  0.78128015  0.04732740     0.00000
C938        C  0.82091589  0.76639600  0.05891299    -0.11900
C939        C  0.79526131  0.77321019  0.04066373     0.02200
C940        C  0.80691854  0.79507268  0.01017494    -0.00100
C941        C  0.84489725  0.81237262  0.00065659    -0.11800
C942        C  0.87016057  0.80521417  0.01844115     0.02100
H943        H  0.81128747  0.74732430  0.08072127     0.15100
H944        H  0.85448565  0.82966320  0.97760435     0.15100
C945        C  0.90717092  0.81955912  0.00389201     0.36700
C946        C  0.75674706  0.75491697  0.05207895     0.36600
N947        N  0.93632381  0.83110202  0.99110107    -0.43600
N948        N  0.72587313  0.74024275  0.06130012    -0.43600
C949        C  0.99872134  0.80632041  0.00426359     0.00000
C950        C  0.00976654  0.79199840  0.97596054    -0.11900
C951        C  0.04282306  0.81525994  0.95757469     0.02200
C952        C  0.06487997  0.85338495  0.96723505    -0.00100
C953        C  0.05191031  0.86849875  0.99293034    -0.11800
C954        C  0.01917545  0.84550840  0.01142446     0.02100
H955        H  0.99411488  0.76224743  0.96972690     0.15100
H956        H  0.06884741  0.89788983  0.00029255     0.15100
C957        C  0.00804246  0.86294013  0.03833544     0.36700
C958        C  0.05459278  0.79927307  0.92991453     0.36600
N959        N  0.99905860  0.87696938  0.05975206    -0.43600
N960        N  0.06396300  0.78665375  0.90751509    -0.43600
C961        C  0.11290496  0.51783579  0.13127715     0.00000
C962        C  0.13880317  0.53202792  0.15852933    -0.11900
C963        C  0.14587274  0.50821782  0.17879346     0.02200
C964        C  0.12825652  0.46928234  0.17064158    -0.00100
C965        C  0.10436647  0.45556317  0.14149220    -0.11800
C966        C  0.09571476  0.47935172  0.12246743     0.02100
H967        H  0.15092804  0.56135106  0.16608735     0.15100
H968        H  0.09019502  0.42579968  0.13524140     0.15100
C969        C  0.06723657  0.46338068  0.09572332     0.36700
C970        C  0.16934372  0.52451009  0.20916571     0.36600
N971        N  0.04422109  0.45064772  0.07446064    -0.43600
N972        N  0.18786729  0.53769263  0.23362840    -0.43600
C973        C  0.99042123  0.69377575  0.08797834     0.00000
C974        C  0.00139050  0.68217058  0.05757358    -0.11900
C975        C  0.02210548  0.66344449  0.05933122     0.02200
C976        C  0.03157158  0.65539348  0.09202587    -0.00100
C977        C  0.02207756  0.66840802  0.12235267    -0.11800
C978        C  0.00207111  0.68785508  0.12059019     0.02100
H979        H  0.99292049  0.68694270  0.03230233     0.15100
H980        H  0.02937613  0.66232967  0.14762936     0.15100
C981        C  0.99171052  0.69907065  0.15264283     0.36700
C982        C  0.03093130  0.65044655  0.02745439     0.36600
N983        N  0.98342721  0.70805083  0.17836266    -0.43600
N984        N  0.03801240  0.63996941  0.00194977    -0.43600
C985        C  0.13530684  0.65759483  0.18251204     0.00000
C986        C  0.11951270  0.67635142  0.20046154    -0.11900
C987        C  0.14248646  0.71068955  0.21745423     0.02200
C988        C  0.18184697  0.72620420  0.21730932    -0.00100
C989        C  0.19723852  0.70534007  0.20283405    -0.11800
C990        C  0.17433883  0.67139254  0.18515976     0.02100
H991        H  0.08958015  0.66593855  0.19863221     0.15100
H992        H  0.22742923  0.71704313  0.20276453     0.15100
C993        C  0.19174932  0.65218705  0.16844798     0.36700
C994        C  0.12524879  0.73051529  0.23331629     0.36600
N995        N  0.20583415  0.63690054  0.15509478    -0.43600
N996        N  0.11142338  0.74636565  0.24605293    -0.43600
C997        C  0.51527211  0.77498933  0.21853616     0.00000
C998        C  0.48933998  0.75971075  0.19133387    -0.11900
C999        C  0.48085157  0.78249551  0.17089385     0.02200
C1000       C  0.49788478  0.82160635  0.17821106    -0.00100
C1001       C  0.52095900  0.83604617  0.20783725    -0.11800
C1002       C  0.53033384  0.81321067  0.22753282     0.02100
H1003       H  0.47832430  0.73046632  0.18396058     0.15100
H1004       H  0.53414126  0.86578683  0.21397291     0.15100
C1005       C  0.55747208  0.83002441  0.25529009     0.36700
C1006       C  0.45680029  0.76502760  0.14109846     0.36600
N1007       N  0.57925421  0.84343055  0.27752836    -0.43600
N1008       N  0.43798879  0.75060165  0.11705055    -0.43600
C1009       C  0.45263829  0.57241114  0.13282377     0.00000
C1010       C  0.43721736  0.59116780  0.15121769    -0.11900
C1011       C  0.46034471  0.62412599  0.16992331     0.02200
C1012       C  0.49965114  0.63915733  0.16959159    -0.00100
C1013       C  0.51522290  0.62253516  0.14811433    -0.11800
C1014       C  0.49194808  0.58897829  0.13009502     0.02100
H1015       H  0.40698168  0.57842644  0.15335284     0.15100
H1016       H  0.54537996  0.63404273  0.14760168     0.15100
C1017       C  0.50881627  0.57111265  0.11016547     0.36700
C1018       C  0.44296109  0.64090374  0.19069691     0.36600
N1019       N  0.52222948  0.55678021  0.09407202    -0.43600
N1020       N  0.42898259  0.65420702  0.20744881    -0.43600
C1021       C  0.78925918  0.52661402  0.29927040     0.00000
C1022       C  0.77317985  0.49247596  0.31692676    -0.11900
C1023       C  0.79561148  0.48170924  0.33540946     0.02200
C1024       C  0.83500589  0.50519255  0.33580582    -0.00100
C1025       C  0.85121207  0.53733078  0.31500467    -0.11800
C1026       C  0.82864838  0.54830664  0.29702828     0.02100
H1027       H  0.74300114  0.47552615  0.31831680     0.15100
H1028       H  0.88143908  0.55533049  0.31474735     0.15100
C1029       C  0.84635678  0.58250917  0.27723312     0.36700
C1030       C  0.77751560  0.44700523  0.35447805     0.36600
N1031       N  0.86037098  0.60975878  0.26112909    -0.43600
N1032       N  0.76295451  0.41913102  0.36964572    -0.43600
C1033       C  0.84581928  0.67274468  0.14573838     0.00000
C1034       C  0.82672111  0.63336538  0.14424473    -0.11900
C1035       C  0.80136238  0.61194972  0.17052033     0.02200
C1036       C  0.79457029  0.62993958  0.19919830    -0.00100
C1037       C  0.81325721  0.66927394  0.20033810    -0.11800
C1038       C  0.83816228  0.69062697  0.17393811     0.02100
H1039       H  0.83221908  0.61922477  0.12289062     0.15100
H1040       H  0.80782923  0.68350824  0.22166425     0.15100
C1041       C  0.85412024  0.73090935  0.17583868     0.36700
C1042       C  0.78386790  0.57157453  0.16790688     0.36600
N1043       N  0.86671507  0.76315522  0.17723374    -0.43600
N1044       N  0.76985194  0.53921376  0.16579935    -0.43600
C1045       C  0.65628277  0.61482365  0.26215620     0.00000
C1046       C  0.64257750  0.62379910  0.29232013    -0.11900
C1047       C  0.62112055  0.64179624  0.29021361     0.02200
C1048       C  0.61374611  0.65186169  0.25742540    -0.00100
C1049       C  0.62692353  0.64224116  0.22729142    -0.11800
C1050       C  0.64774125  0.62365718  0.22937413     0.02100
H1051       H  0.64912409  0.61716552  0.31768535     0.15100
H1052       H  0.62149132  0.64992096  0.20193299     0.15100
C1053       C  0.66211131  0.61623537  0.19769285     0.36700
C1054       C  0.60899781  0.65157593  0.32205908     0.36600
N1055       N  0.67377322  0.61041831  0.17231980    -0.43600
N1056       N  0.59933002  0.65943685  0.34760332    -0.43600
C1057       C  0.58035532  0.46309993  0.38347579     0.00000
C1058       C  0.60326313  0.44849610  0.37289749    -0.11900
C1059       C  0.63742007  0.47129184  0.35617434     0.02200
C1060       C  0.64988763  0.50980235  0.35127410    -0.00100
C1061       C  0.62889177  0.52523445  0.36542365    -0.11800
C1062       C  0.59399559  0.50211021  0.38095017     0.02100
H1063       H  0.59292183  0.41856440  0.37477448     0.15100
H1064       H  0.63808898  0.55470973  0.36154826     0.15100
C1065       C  0.57183164  0.51865807  0.39252432     0.36700
C1066       C  0.65763545  0.45370669  0.34217640     0.36600
N1067       N  0.55397981  0.53182336  0.40175502    -0.43600
N1068       N  0.67290591  0.43857263  0.33106462    -0.43600
C1069       C  0.18315872  0.44171995  0.72152539     0.00000
C1070       C  0.20033684  0.47631238  0.70451948    -0.11900
C1071       C  0.17900971  0.48740787  0.68460277     0.02200
C1072       C  0.13963848  0.46425861  0.68251772    -0.00100
C1073       C  0.12222458  0.43161573  0.70263417    -0.11800
C1074       C  0.14368162  0.41985663  0.72145405     0.02100
H1075       H  0.23065620  0.49303461  0.70416921     0.15100
H1076       H  0.09206674  0.41358761  0.70126314     0.15100
C1077       C  0.12472930  0.38406399  0.73869400     0.36700
C1078       C  0.19854267  0.52176183  0.66529074     0.36600
N1079       N  0.10955422  0.35533073  0.75241187    -0.43600
N1080       N  0.21474398  0.54932514  0.64990600    -0.43600
C1081       C  0.32023375  0.46740074  0.66916875     0.00000
C1082       C  0.33428374  0.45299395  0.64357761    -0.11900
C1083       C  0.36698563  0.47701828  0.62533178     0.02200
C1084       C  0.38513757  0.51604385  0.63186264    -0.00100
C1085       C  0.36875536  0.53073362  0.65449884    -0.11800
C1086       C  0.33665833  0.50677923  0.67339811     0.02100
H1087       H  0.32179675  0.42285575  0.64009017     0.15100
H1088       H  0.38291767  0.56073197  0.65975435     0.15100
C1089       C  0.32254730  0.52328761  0.69846803     0.36700
C1090       C  0.38305189  0.46092334  0.60198904     0.36600
N1091       N  0.31145537  0.53657942  0.71867983    -0.43600
N1092       N  0.39597227  0.44805467  0.58330826    -0.43600
C1093       C  0.43562667  0.17262213  0.79906877     0.00000
C1094       C  0.40785967  0.13748757  0.81126811    -0.11900
C1095       C  0.41732514  0.11271286  0.82685853     0.02200
C1096       C  0.45526826  0.12323992  0.83140580    -0.00100
C1097       C  0.48297886  0.15660236  0.81639006    -0.11800
C1098       C  0.47341165  0.18094299  0.79948898     0.02100
H1099       H  0.37853296  0.12983477  0.80979536     0.15100
H1100       H  0.51212666  0.16419245  0.81882263     0.15100
C1101       C  0.50294575  0.21454226  0.78402662     0.36700
C1102       C  0.38753516  0.07740119  0.83946136     0.36600
N1103       N  0.52675294  0.24105560  0.77111362    -0.43600
N1104       N  0.36333448  0.04896040  0.84892096    -0.43600
C1105       C  0.31816570  0.35381523  0.75212549     0.00000
C1106       C  0.31813206  0.33062738  0.72461749    -0.11900
C1107       C  0.33849861  0.31155653  0.72672162     0.02200
C1108       C  0.35951500  0.31528179  0.75680244    -0.00100
C1109       C  0.36074385  0.33923320  0.78386389    -0.11800
C1110       C  0.34078795  0.35882923  0.78164249     0.02100
H1111       H  0.30141806  0.32661718  0.70150903     0.15100
H1112       H  0.37655234  0.34179832  0.80729216     0.15100
C1113       C  0.34294318  0.38250304  0.81067227     0.36700
C1114       C  0.33562048  0.28655789  0.69857698     0.36600
N1115       N  0.34488674  0.40156057  0.83397282    -0.43600
N1116       N  0.33324048  0.26645411  0.67607283    -0.43600
C1117       C  0.46306157  0.31882191  0.85083903     0.00000
C1118       C  0.44774337  0.33874897  0.86749141    -0.11900
C1119       C  0.47108847  0.37313502  0.88419930     0.02200
C1120       C  0.51023577  0.38734772  0.88516656    -0.00100
C1121       C  0.52494141  0.36536602  0.87207685    -0.11800
C1122       C  0.50177572  0.33152964  0.85452523     0.02100
H1123       H  0.41803789  0.32917213  0.86484491     0.15100
H1124       H  0.55497555  0.37612465  0.87292922     0.15100
C1125       C  0.51879908  0.31137423  0.83913390     0.36700
C1126       C  0.45455119  0.39427633  0.89862752     0.36600
N1127       N  0.53297671  0.29559558  0.82703691    -0.43600
N1128       N  0.44132959  0.41123035  0.91019039    -0.43600
C1129       C  0.45103961  0.85720330  0.63215004     0.00000
C1130       C  0.48759137  0.87126920  0.61911935    -0.11900
C1131       C  0.51388876  0.86471703  0.63661384     0.02200
C1132       C  0.50333043  0.84349114  0.66750723    -0.00100
C1133       C  0.46590703  0.82723789  0.67861768    -0.11800
C1134       C  0.44026974  0.83463254  0.66195771     0.02100
H1135       H  0.49638263  0.88963237  0.59679940     0.15100
H1136       H  0.45712571  0.81069975  0.70215594     0.15100
C1137       C  0.40463972  0.82233165  0.67880083     0.36700
C1138       C  0.55198587  0.88273721  0.62405968     0.36600
N1139       N  0.37688569  0.81270137  0.69372572    -0.43600
N1140       N  0.58254640  0.89732313  0.61397483    -0.43600
C1141       C  0.30977840  0.83254360  0.67667906     0.00000
C1142       C  0.29499439  0.84789828  0.70058962    -0.11900
C1143       C  0.26129044  0.82476889  0.71797552     0.02200
C1144       C  0.24290120  0.78547863  0.71281431    -0.00100
C1145       C  0.25960411  0.76985958  0.69172363    -0.11800
C1146       C  0.29230257  0.79292946  0.67309731     0.02100
H1147       H  0.30797135  0.87812736  0.70348464     0.15100
H1148       H  0.24526780  0.73970728  0.68733430     0.15100
C1149       C  0.30611065  0.77509083  0.64920261     0.36700
C1150       C  0.24489932  0.84211481  0.73928011     0.36600
N1151       N  0.31715180  0.76075236  0.63010879    -0.43600
N1152       N  0.23189087  0.85624674  0.75621619    -0.43600
C1153       C  0.17727112  0.16755655  0.51282549     0.00000
C1154       C  0.15087322  0.12907881  0.51235759    -0.11900
C1155       C  0.15640577  0.10361110  0.53186023     0.02200
C1156       C  0.18945570  0.11647885  0.55160228    -0.00100
C1157       C  0.21442613  0.15531907  0.55426065    -0.11800
C1158       C  0.20837202  0.18094687  0.53543913     0.02100
H1159       H  0.12684199  0.11859472  0.49515340     0.15100
H1160       H  0.24012480  0.16542411  0.56913543     0.15100
C1161       C  0.23640461  0.22022661  0.53710768     0.36700
C1162       C  0.12949315  0.06422156  0.52825961     0.36600
N1163       N  0.25890555  0.25170016  0.53859602    -0.43600
N1164       N  0.10727095  0.03286895  0.52487510    -0.43600
C1165       C  0.27293755  0.97877691  0.58567106     0.00000
C1166       C  0.28527139  0.97542628  0.61863439    -0.11900
C1167       C  0.30700729  0.95798999  0.62267604     0.02200
C1168       C  0.31645923  0.94299380  0.59331045    -0.00100
C1169       C  0.30190525  0.94411217  0.56067205    -0.11800
C1170       C  0.28061070  0.96208308  0.55661163     0.02100
H1171       H  0.27939824  0.98798817  0.64108024     0.15100
H1172       H  0.30838338  0.93225479  0.53807564     0.15100
C1173       C  0.26684280  0.96301227  0.52231490     0.36700
C1174       C  0.31919684  0.95592487  0.65739807     0.36600
N1175       N  0.25567622  0.96367586  0.49487688    -0.43600
N1176       N  0.32895465  0.95436085  0.68523887    -0.43600
C1177       C  0.15713103  0.97316004  0.50167503     0.00000
C1178       C  0.16988596  0.96419882  0.47092046    -0.11900
C1179       C  0.14602635  0.93168584  0.45152779     0.02200
C1180       C  0.10853990  0.90875029  0.46209713    -0.00100
C1181       C  0.09487046  0.91979531  0.49049884    -0.11800
C1182       C  0.11862408  0.95119233  0.51060380     0.02100
H1183       H  0.19916590  0.98064873  0.46367676     0.15100
H1184       H  0.06633937  0.90158336  0.49918553     0.15100
C1185       C  0.10291813  0.95786680  0.54184179     0.36700
C1186       C  0.16118891  0.92064425  0.42264793     0.36600
N1187       N  0.09018887  0.96269084  0.56701012    -0.43600
N1188       N  0.17322655  0.91163075  0.39951352    -0.43600
C1189       C  0.33885911  0.17394836  0.69858554     0.00000
C1190       C  0.30758897  0.13968895  0.70771059    -0.11900
C1191       C  0.28650174  0.11244060  0.68251524     0.02200
C1192       C  0.29633024  0.11914833  0.64676545    -0.00100
C1193       C  0.32796270  0.15317826  0.63762563    -0.11800
C1194       C  0.34911358  0.18048303  0.66295115     0.02100
H1195       H  0.29965572  0.13384248  0.73485957     0.15100
H1196       H  0.33575632  0.15894446  0.61044864     0.15100
C1197       C  0.38049541  0.21522297  0.65118901     0.36700
C1198       C  0.25521940  0.07776294  0.69464710     0.36600
N1199       N  0.40559620  0.24304022  0.64163940    -0.43600
N1200       N  0.23016313  0.05011202  0.70455841    -0.43600
C1201       C  0.86906195  0.45832335  0.87805409     0.00000
C1202       C  0.83236833  0.44284966  0.86536322    -0.11900
C1203       C  0.82080273  0.46522734  0.84798052     0.02200
C1204       C  0.84572180  0.50415754  0.84451461    -0.00100
C1205       C  0.88113046  0.52022401  0.86036696    -0.11800
C1206       C  0.89320906  0.49756871  0.87647818     0.02100
H1207       H  0.81374547  0.41280319  0.86647368     0.15100
H1208       H  0.90053717  0.55002796  0.85761362     0.15100
C1209       C  0.93109685  0.51495666  0.88976258     0.36700
C1210       C  0.78398807  0.44719109  0.83226131     0.36600
N1211       N  0.96148409  0.52882081  0.90031158    -0.43600
N1212       N  0.75454664  0.43242806  0.81953716    -0.43600
C1213       C  0.84254270  0.31699607  0.82423105     0.00000
C1214       C  0.85690699  0.29780860  0.80491436    -0.11900
C1215       C  0.83267223  0.26369930  0.78827850     0.02200
C1216       C  0.79348503  0.24912109  0.78983546    -0.00100
C1217       C  0.77942968  0.27057766  0.80554160    -0.11800
C1218       C  0.80357324  0.30408428  0.82319636     0.02100
H1219       H  0.88675586  0.30751591  0.80561125     0.15100
H1220       H  0.74935281  0.25949526  0.80680226     0.15100
C1221       C  0.78736617  0.32337410  0.84182071     0.36700
C1222       C  0.84856681  0.24296639  0.77177770     0.36600
N1223       N  0.77390588  0.33839407  0.85672991    -0.43600
N1224       N  0.86159505  0.22652136  0.75875094    -0.43600
C1225       C  0.97071934  0.45983034  0.97609122     0.00000
C1226       C  0.00332640  0.49337931  0.96766489    -0.11900
C1227       C  0.02370150  0.52075171  0.99315912     0.02200
C1228       C  0.01175885  0.51478797  0.02839935    -0.00100
C1229       C  0.97913219  0.48127872  0.03676877    -0.11800
C1230       C  0.95868934  0.45401424  0.01130963     0.02100
H1231       H  0.01272416  0.49865984  0.94084195     0.15100
H1232       H  0.96962868  0.47598485  0.06356102     0.15100
C1233       C  0.92568162  0.42033235  0.02262649     0.36700
C1234       C  0.05627150  0.55483124  0.98187789     0.36600
N1235       N  0.89921202  0.39347474  0.03186416    -0.43600
N1236       N  0.08230164  0.58206653  0.97260211    -0.43600
C1237       C  0.16017002  0.16298960  0.00682324     0.00000
C1238       C  0.17405469  0.18607931  0.97745271    -0.11900
C1239       C  0.15110145  0.19603838  0.95859860     0.02200
C1240       C  0.11330287  0.18161653  0.96824535    -0.00100
C1241       C  0.09849756  0.15581758  0.99525858    -0.11800
C1242       C  0.12142158  0.14669170  0.01482563     0.02100
H1243       H  0.20355710  0.19886151  0.97092186     0.15100
H1244       H  0.06954472  0.14518495  0.00301703     0.15100
C1245       C  0.10456976  0.12271034  0.04444870     0.36700
C1246       C  0.16746219  0.22308525  0.93106905     0.36600
N1247       N  0.09074414  0.10382796  0.06831816    -0.43600
N1248       N  0.18056953  0.24482023  0.90904051    -0.43600
C1249       C  0.17869084  0.33235195  0.81593876     0.00000
C1250       C  0.18736380  0.34454237  0.85085516    -0.11900
C1251       C  0.16263993  0.32506272  0.87803000     0.02200
C1252       C  0.12802331  0.29249094  0.87059436    -0.00100
C1253       C  0.11963427  0.28007433  0.83574503    -0.11800
C1254       C  0.14434225  0.29942457  0.80863407     0.02100
H1255       H  0.21368526  0.36958553  0.85711893     0.15100
H1256       H  0.09328853  0.25510636  0.82937353     0.15100
C1257       C  0.13295831  0.28498784  0.77365488     0.36700
C1258       C  0.17402719  0.33907522  0.91312190     0.36600
N1259       N  0.12365823  0.27327750  0.74568682    -0.43600
N1260       N  0.18334648  0.35042295  0.94118708    -0.43600
C1261       C  0.95122126  0.31961814  0.91543465     0.00000
C1262       C  0.96424760  0.30803677  0.88644484    -0.11900
C1263       C  0.98294571  0.28741738  0.89048735     0.02200
C1264       C  0.98928155  0.27827816  0.92412487    -0.00100
C1265       C  0.97596729  0.28953879  0.95306853    -0.11800
C1266       C  0.95695103  0.30981636  0.94902383     0.02100
H1267       H  0.96043898  0.31578075  0.86050616     0.15100
H1268       H  0.98108397  0.28305009  0.97907595     0.15100
C1269       C  0.94607813  0.32254500  0.97984671     0.36700
C1270       C  0.99773033  0.27839110  0.85996188     0.36600
N1271       N  0.93757770  0.33295503  0.00455477    -0.43600
N1272       N  0.00982936  0.27136090  0.83555651    -0.43600
C1273       C  0.97408520  0.16344985  0.01242142     0.00000
C1274       C  0.95608069  0.17899646  0.03191161    -0.11900
C1275       C  0.92179089  0.15575460  0.04829283     0.02200
C1276       C  0.90563772  0.11637030  0.04602661    -0.00100
C1277       C  0.92552775  0.10098331  0.02952987    -0.11800
C1278       C  0.95939884  0.12415033  0.01246621     0.02100
H1279       H  0.96726731  0.20914917  0.03209956     0.15100
H1280       H  0.91325352  0.07075276  0.02772485     0.15100
C1281       C  0.97784815  0.10688718  0.99409432     0.36700
C1282       C  0.90296598  0.17290829  0.06608873     0.36600
N1283       N  0.99260845  0.09302268  0.97940157    -0.43600
N1284       N  0.88816160  0.18693775  0.08039329    -0.43600
C1285       C  0.51923919  0.11414758  0.38938218     0.00000
C1286       C  0.48033318  0.08955298  0.39102119    -0.11900
C1287       C  0.45528403  0.09681567  0.37249647     0.02200
C1288       C  0.46932310  0.12910812  0.35171705    -0.00100
C1289       C  0.50796129  0.15481485  0.35203304    -0.11800
C1290       C  0.53290857  0.14778198  0.37078175     0.02100
H1291       H  0.46975111  0.06319950  0.40464460     0.15100
H1292       H  0.51899916  0.17925246  0.33561126     0.15100
C1293       C  0.57258559  0.17330684  0.36695770     0.36700
C1294       C  0.41608597  0.06852757  0.37179434     0.36600
N1295       N  0.60427924  0.19396792  0.36342803    -0.43600
N1296       N  0.38472654  0.04570802  0.37100093    -0.43600
C1297       C  0.72478004  0.18980828  0.29704110     0.00000
C1298       C  0.71777180  0.20448186  0.32727470    -0.11900
C1299       C  0.68657816  0.18263403  0.34788465     0.02200
C1300       C  0.66147283  0.14465062  0.33838505    -0.00100
C1301       C  0.66681786  0.13104048  0.30625191    -0.11800
C1302       C  0.69849077  0.15330469  0.28570022     0.02100
H1303       H  0.73845147  0.23229780  0.33635336     0.15100
H1304       H  0.64778809  0.10225258  0.29832879     0.15100
C1305       C  0.70481902  0.13755065  0.25430670     0.36700
C1306       C  0.68281092  0.19977149  0.37963872     0.36600
N1307       N  0.70998007  0.12512756  0.22903594    -0.43600
N1308       N  0.68017797  0.21372178  0.40507443    -0.43600
C1309       C  0.51662493  0.00757081  0.48322299     0.00000
C1310       C  0.48227913  0.97676026  0.47297627    -0.11900
C1311       C  0.45443808  0.95562025  0.49739501     0.02200
C1312       C  0.46058596  0.96498746  0.53343028    -0.00100
C1313       C  0.49512668  0.99558760  0.54370450    -0.11800
C1314       C  0.52300362  0.01667486  0.51926021     0.02100
H1315       H  0.47670765  0.96951946  0.44555813     0.15100
H1316       H  0.50070267  0.00287794  0.57110990     0.15100
C1317       C  0.55805195  0.04701994  0.53234532     0.36700
C1318       C  0.41968641  0.92495594  0.48417377     0.36600
N1319       N  0.58607070  0.07128843  0.54298284    -0.43600
N1320       N  0.39194579  0.90040978  0.47337456    -0.43600
C1321       C  0.76548161  0.84127663  0.46119311     0.00000
C1322       C  0.73603186  0.80584899  0.47088899    -0.11900
C1323       C  0.74315218  0.77949662  0.48668784     0.02200
C1324       C  0.78033376  0.78876594  0.49396187    -0.00100
C1325       C  0.80992427  0.82261811  0.48146470    -0.11800
C1326       C  0.80272213  0.84838340  0.46408631     0.02100
H1327       H  0.70718488  0.79937852  0.46765912     0.15100
H1328       H  0.83864100  0.82952524  0.48644598     0.15100
C1329       C  0.83393521  0.88202697  0.45052883     0.36700
C1330       C  0.71174400  0.74434338  0.49768419     0.36600
N1331       N  0.85915006  0.90836163  0.43887070    -0.43600
N1332       N  0.68647488  0.71613908  0.50624573    -0.43600
C1333       C  0.65840737  0.03203525  0.42104992     0.00000
C1334       C  0.66698666  0.01785160  0.39088475    -0.11900
C1335       C  0.68687516  0.99826465  0.39280938     0.02200
C1336       C  0.69823390  0.99217203  0.42547457    -0.00100
C1337       C  0.69119117  0.00778349  0.45543299    -0.11800
C1338       C  0.67180480  0.02785917  0.45348364     0.02100
H1339       H  0.65708948  0.02108204  0.36572468     0.15100
H1340       H  0.69974637  0.00309199  0.48070363     0.15100
C1341       C  0.66371030  0.04138086  0.48540781     0.36700
C1342       C  0.69260279  0.98224666  0.36128551     0.36600
N1343       N  0.65718640  0.05219121  0.51100330    -0.43600
N1344       N  0.69701033  0.96941595  0.33591930    -0.43600
C1345       C  0.80376335  0.99253770  0.51292084     0.00000
C1346       C  0.78877939  0.01061178  0.53319898    -0.11900
C1347       C  0.81245328  0.04502310  0.54973930     0.02200
C1348       C  0.85172649  0.06102782  0.54707176    -0.00100
C1349       C  0.86660372  0.04106761  0.52997561    -0.11800
C1350       C  0.84304651  0.00733994  0.51247678     0.02100
H1351       H  0.75868730  0.99957452  0.53366516     0.15100
H1352       H  0.89679487  0.05339909  0.52779341     0.15100
C1353       C  0.86021786  0.98974991  0.49277031     0.36700
C1354       C  0.79583498  0.06424525  0.56781612     0.36600
N1355       N  0.87473575  0.97634194  0.47703606    -0.43600
N1356       N  0.78219565  0.07935914  0.58227165    -0.43600
C1357       C  0.66754194  0.84681960  0.36706857     0.00000
C1358       C  0.63770247  0.81206885  0.37742045    -0.11900
C1359       C  0.61676848  0.78369098  0.35300020     0.02200
C1360       C  0.62528245  0.78997007  0.31703624    -0.00100
C1361       C  0.65466376  0.82499371  0.30669774    -0.11800
C1362       C  0.67570232  0.85323981  0.33110420     0.02100
H1363       H  0.63136947  0.80651931  0.40487921     0.15100
H1364       H  0.66120695  0.83056291  0.27927467     0.15100
C1365       C  0.70524866  0.88851281  0.31810324     0.36700
C1366       C  0.58764854  0.74819641  0.36605911     0.36600
N1367       N  0.72895788  0.91661620  0.30744586    -0.43600
N1368       N  0.56441183  0.71983213  0.37673981    -0.43600
loop_ 
_geom_bond_atom_site_label_1 
_geom_bond_atom_site_label_2 
_geom_bond_distance 
_geom_bond_site_symmetry_2 
_ccdc_geom_bond_type 
O1            V9   1.922       .  S
O1           C11   1.269       .  A
O2            V9   1.923       .  S
O2           C12   1.270       .  A
O3            V9   1.888       .  S
O3           C13   1.261       .  A
O4            V9   1.885       .  S
O4           C14   1.260       .  A
O5           V10   1.908       .  S
O5           C14   1.268       .  A
O6           V10   1.910       .  S
O6           C13   1.267       .  A
O7           V10   1.885       .  S
O7           C12   1.260       .  A
O8           V10   1.883       .  S
O8           C11   1.261       .  A
V9           V10   2.086       .  T
C11        C1321   1.485       .  S
C12        C1336   1.481       .  S
C13        C1345   1.477       .  S
C14        C1357   1.485       .  S
O15          V23   1.918       .  S
O15          C25   1.268       .  A
O16          V23   1.918       .  S
O16          C26   1.270       .  A
O17          V23   1.877       .  S
O17          C27   1.259       .  A
O18          V23   1.885       .  S
O18          C28   1.260       .  A
O19          V24   1.918       .  S
O19          C28   1.271       .  A
O20          V24   1.921       .  S
O20          C27   1.270       .  A
O21          V24   1.887       .  S
O21          C26   1.261       .  A
O22          V24   1.882       .  S
O22          C25   1.259       .  A
V23          V24   2.084       .  T
C25        C1285   1.473       .  S
C26        C1333   1.487       .  S
C27        C1300   1.489       .  S
C28        C1309   1.493       .  S
O29          V37   1.913       .  S
O29          C39   1.266       .  A
O30          V37   1.919       .  S
O30          C40   1.270       .  A
O31          V37   1.885       .  S
O31          C41   1.262       .  A
O32          V37   1.887       .  S
O32          C42   1.261       .  A
O33          V38   1.911       .  S
O33          C42   1.267       .  A
O34          V38   1.911       .  S
O34          C41   1.268       .  A
O35          V38   1.893       .  S
O35          C40   1.262       .  A
O36          V38   1.889       .  S
O36          C39   1.261       .  A
V37          V38   2.087       .  T
C39        C1240   1.470       .  S
C40        C1264   1.486   1_455  S
C41        C1252   1.489       .  S
C42        C1273   1.475   1_456  S
O43          V51   1.914       .  S
O43          C53   1.267       .  A
O44          V51   1.920       .  S
O44          C54   1.270       .  A
O45          V51   1.885       .  S
O45          C55   1.260       .  A
O46          V51   1.884       .  S
O46          C56   1.260       .  A
O47          V52   1.914       .  S
O47          C56   1.268       .  A
O48          V52   1.914       .  S
O48          C55   1.270       .  A
O49          V52   1.894       .  S
O49          C54   1.262       .  A
O50          V52   1.889       .  S
O50          C53   1.261       .  A
V51          V52   2.086       .  T
C53        C1201   1.477       .  S
C54        C1261   1.489       .  S
C55        C1225   1.492       .  S
C56        C1213   1.474       .  S
O57          V65   1.923       .  S
O57          C67   1.269       .  A
O58          V65   1.923       .  S
O58          C68   1.271       .  A
O59          V65   1.878       .  S
O59          C69   1.258       .  A
O60          V65   1.873   1_565  S
O60          C70   1.258   1_565  A
O61          V66   1.924       .  S
O61          C70   1.271       .  A
O62          V66   1.922       .  S
O62          C69   1.272       .  A
O63          V66   1.887       .  S
O63          C68   1.260       .  A
O64          V66   1.882       .  S
O64          C67   1.259       .  A
V65          V66   2.082       .  T
C67        C1156   1.476       .  S
C68        C1165   1.483   1_545  S
C69        C1192   1.491       .  S
C70        C1177   1.486   1_545  S
O71          V79   1.920       .  S
O71          C81   1.269       .  A
O72          V79   1.924       .  S
O72          C82   1.271       .  A
O73          V79   1.886       .  S
O73          C83   1.260       .  A
O74          V79   1.882       .  S
O74          C84   1.259       .  A
O75          V80   1.919       .  S
O75          C84   1.270       .  A
O76          V80   1.919       .  S
O76          C83   1.271       .  A
O77          V80   1.886       .  S
O77          C82   1.260       .  A
O78          V80   1.883       .  S
O78          C81   1.258       .  A
V79          V80   2.085       .  T
C81        C1129   1.473       .  S
C82        C1168   1.489       .  S
C83        C1312   1.495       .  S
C84        C1141   1.482       .  S
O85          V93   1.919       .  S
O85          C95   1.269       .  A
O86          V93   1.922       .  S
O86          C96   1.270       .  A
O87          V93   1.888       .  S
O87          C97   1.261       .  A
O88          V93   1.890       .  S
O88          C98   1.261       .  A
O89          V94   1.909       .  S
O89          C98   1.269       .  A
O90          V94   1.911       .  S
O90          C97   1.267       .  A
O91          V94   1.889       .  S
O91          C96   1.260       .  A
O92          V94   1.885       .  S
O92          C95   1.262       .  A
V93          V94   2.086       .  T
C95        C1093   1.487       .  S
C96        C1108   1.479       .  S
C97        C1117   1.475       .  S
C98        C1189   1.490       .  S
O99         V107   1.918       .  S
O99         C109   1.268       .  A
O100        V107   1.922       .  S
O100        C110   1.271       .  A
O101        V107   1.881       .  S
O101        C111   1.260       .  A
O102        V107   1.890       .  S
O102        C112   1.262       .  A
O103        V108   1.907       .  S
O103        C112   1.267       .  A
O104        V108   1.911       .  S
O104        C111   1.267       .  A
O105        V108   1.890       .  S
O105        C110   1.262       .  A
O106        V108   1.887       .  S
O106        C109   1.260       .  A
V107        V108   2.085       .  T
C109       C1069   1.476       .  S
C110       C1105   1.497       .  S
C111       C1081   1.475       .  S
C112       C1249   1.490       .  S
O113        V121   1.914       .  S
O113        C123   1.267       .  A
O114        V121   1.918       .  S
O114        C124   1.270       .  A
O115        V121   1.895       .  S
O115        C125   1.262       .  A
O116        V121   1.888       .  S
O116        C126   1.261       .  A
O117        V122   1.916       .  S
O117        C126   1.268       .  A
O118        V122   1.916       .  S
O118        C125   1.270       .  A
O119        V122   1.890       .  S
O119        C124   1.260       .  A
O120        V122   1.889       .  S
O120        C123   1.261       .  A
V121        V122   2.087       .  T
C123       C1021   1.475       .  S
C124       C1045   1.482       .  S
C125       C1036   1.493       .  S
C126       C1060   1.476       .  S
O127        V135   1.916       .  S
O127        C137   1.267       .  A
O128        V135   1.920       .  S
O128        C138   1.270       .  A
O129        V135   1.887       .  S
O129        C139   1.260       .  A
O130        V135   1.884       .  S
O130        C140   1.261       .  A
O131        V136   1.910       .  S
O131        C140   1.266       .  A
O132        V136   1.906       .  S
O132        C139   1.268       .  A
O133        V136   1.887       .  S
O133        C138   1.261       .  A
O134        V136   1.884       .  S
O134        C137   1.259       .  A
V135        V136   2.087       .  T
C137        C997   1.470       .  S
C138       C1048   1.484       .  S
C139       C1360   1.486       .  S
C140       C1012   1.473       .  S
O141        V149   1.913       .  S
O141        C151   1.267       .  A
O142        V149   1.918       .  S
O142        C152   1.269       .  A
O143        V149   1.888       .  S
O143        C153   1.261       .  A
O144        V149   1.890       .  S
O144        C154   1.261       .  A
O145        V150   1.911       .  S
O145        C154   1.270       .  A
O146        V150   1.914       .  S
O146        C153   1.268       .  A
O147        V150   1.883       .  S
O147        C152   1.259       .  A
O148        V150   1.882       .  S
O148        C151   1.259       .  A
V149        V150   2.087       .  T
C151        C961   1.466       .  S
C152        C976   1.478       .  S
C153        C985   1.478       .  S
C154       C1228   1.492       .  S
O155        V163   1.917       .  S
O155        C165   1.268       .  A
O156        V163   1.918       .  S
O156        C166   1.270       .  A
O157        V163   1.880       .  S
O157        C167   1.259       .  A
O158        V163   1.885       .  S
O158        C168   1.260       .  A
O159        V164   1.925       .  S
O159        C168   1.272       .  A
O160        V164   1.922       .  S
O160        C167   1.270       .  A
O161        V164   1.886       .  S
O161        C166   1.260       .  A
O162        V164   1.884       .  S
O162        C165   1.259       .  A
V163        V164   2.086       .  T
C165        C937   1.471       .  S
C166        C973   1.483       .  S
C167        C949   1.487       .  S
C168       C1033   1.493       .  S
O169        V177   1.921       .  S
O169        C179   1.269       .  A
O170        V177   1.923       .  S
O170        C180   1.270       .  A
O171        V177   1.884       .  S
O171        C181   1.260       .  A
O172        V177   1.884       .  S
O172        C182   1.260       .  A
O173        V178   1.920       .  S
O173        C182   1.271       .  A
O174        V178   1.920       .  S
O174        C181   1.271       .  A
O175        V178   1.889       .  S
O175        C180   1.260       .  A
O176        V178   1.887       .  S
O176        C179   1.260       .  A
V177        V178   2.083       .  T
C179        C901   1.482       .  S
C180        C925   1.484       .  S
C181       C1000   1.490       .  S
C182        C913   1.494       .  S
O183        V191   1.912       .  S
O183        C193   1.266       .  A
O184        V191   1.917   1_565  S
O184        C194   1.269   1_565  A
O185        V191   1.887   1_565  S
O185        C195   1.261   1_565  A
O186        V191   1.890       .  S
O186        C196   1.262       .  A
O187        V192   1.911       .  S
O187        C196   1.268       .  A
O188        V192   1.912       .  S
O188        C195   1.267       .  A
O189        V192   1.895       .  S
O189        C194   1.263       .  A
O190        V192   1.891       .  S
O190        C193   1.262       .  A
V191        V192   2.087       .  T
C193       C1276   1.474       .  S
C194        C928   1.491   1_545  S
C195        C892   1.477   1_544  S
C196        C880   1.487       .  S
O197        V205   1.912       .  S
O197        C207   1.266       .  A
O198        V205   1.917       .  S
O198        C208   1.268       .  A
O199        V205   1.894       .  S
O199        C209   1.262       .  A
O200        V205   1.886       .  S
O200        C210   1.261       .  A
O201        V206   1.913       .  S
O201        C210   1.267       .  A
O202        V206   1.906       .  S
O202        C209   1.268       .  A
O203        V206   1.886       .  S
O203        C208   1.260       .  A
O204        V206   1.882       .  S
O204        C207   1.260       .  A
V205        V206   2.086       .  T
C207       C1297   1.466       .  S
C208        C853   1.475       .  S
C209        C877   1.488       .  S
C210        C865   1.475       .  S
O211        V219   1.916       .  S
O211        C221   1.267       .  A
O212        V219   1.918       .  S
O212        C222   1.269       .  A
O213        V219   1.886       .  S
O213        C223   1.262       .  A
O214        V219   1.880       .  S
O214        C224   1.259       .  A
O215        V220   1.919       .  S
O215        C224   1.269       .  A
O216        V220   1.916       .  S
O216        C223   1.269       .  A
O217        V220   1.887       .  S
O217        C222   1.262       .  A
O218        V220   1.884       .  S
O218        C221   1.259       .  A
V219        V220   2.085       .  T
C221        C829   1.470       .  S
C222        C856   1.491       .  S
C223        C844   1.491       .  S
C224        C964   1.485       .  S
O225        V233   1.917       .  S
O225        C235   1.268       .  A
O226        V233   1.920       .  S
O226        C236   1.269       .  A
O227        V233   1.893       .  S
O227        C237   1.263       .  A
O228        V233   1.897       .  S
O228        C238   1.263       .  A
O229        V234   1.907       .  S
O229        C238   1.268       .  A
O230        V234   1.910       .  S
O230        C237   1.266       .  A
O231        V234   1.889       .  S
O231        C236   1.260       .  A
O232        V234   1.888       .  S
O232        C235   1.261       .  A
V233        V234   2.086       .  T
C235        C805   1.479       .  S
C236        C817   1.480       .  S
C237       C1153   1.479       .  S
C238        C841   1.493       .  S
O239        V247   1.911       .  S
O239        C249   1.267       .  A
O240        V247   1.916       .  S
O240        C250   1.269       .  A
O241        V247   1.883       .  S
O241        C251   1.260       .  A
O242        V247   1.886       .  S
O242        C252   1.261       .  A
O243        V248   1.911       .  S
O243        C252   1.268       .  A
O244        V248   1.915       .  S
O244        C251   1.268       .  A
O245        V248   1.891       .  S
O245        C250   1.262       .  A
O246        V248   1.889       .  S
O246        C249   1.261       .  A
V247        V248   2.086       .  T
C249       C1057   1.476       .  S
C250        C820   1.488       .  S
C251        C793   1.478       .  S
C252        C781   1.488       .  S
O253        V261   1.911       .  S
O253        C263   1.266       .  A
O254        V261   1.917       .  S
O254        C264   1.269       .  A
O255        V261   1.890       .  S
O255        C265   1.262       .  A
O256        V261   1.882       .  S
O256        C266   1.260       .  A
O257        V262   1.911       .  S
O257        C266   1.268       .  A
O258        V262   1.907       .  S
O258        C265   1.267       .  A
O259        V262   1.880       .  S
O259        C264   1.260       .  A
O260        V262   1.881       .  S
O260        C263   1.259       .  A
V261        V262   2.087       .  T
C263       C1084   1.465       .  S
C264        C757   1.477       .  S
C265        C784   1.484       .  S
C266        C769   1.474       .  S
O267        V275   1.914       .  S
O267        C277   1.267       .  A
O268        V275   1.921       .  S
O268        C278   1.269       .  A
O269        V275   1.898       .  S
O269        C279   1.263       .  A
O270        V275   1.892       .  S
O270        C280   1.261       .  A
O271        V276   1.912       .  S
O271        C280   1.266       .  A
O272        V276   1.908       .  S
O272        C279   1.268       .  A
O273        V276   1.879       .  S
O273        C278   1.260       .  A
O274        V276   1.882       .  S
O274        C277   1.260       .  A
V275        V276   2.087       .  T
C277        C733   1.472       .  S
C278        C760   1.482       .  S
C279        C745   1.493       .  S
C280       C1324   1.473       .  S
O281        V289   1.915       .  S
O281        C291   1.267       .  A
O282        V289   1.919       .  S
O282        C292   1.268       .  A
O283        V289   1.888       .  S
O283        C293   1.261       .  A
O284        V289   1.895       .  S
O284        C294   1.263       .  A
O285        V290   1.912       .  S
O285        C294   1.269       .  A
O286        V290   1.915       .  S
O286        C293   1.268       .  A
O287        V290   1.891       .  S
O287        C292   1.261       .  A
O288        V290   1.892       .  S
O288        C291   1.262       .  A
V289        V290   2.087       .  T
C291        C709   1.477       .  S
C292        C721   1.478       .  S
C293       C1204   1.477       .  S
C294        C748   1.494       .  S
O295        V303   1.915       .  S
O295        C305   1.268       .  A
O296        V303   1.923       .  S
O296        C306   1.271       .  A
O297        V303   1.885       .  S
O297        C307   1.260       .  A
O298        V303   1.892       .  S
O298        C308   1.262       .  A
O299        V304   1.905       .  S
O299        C308   1.268       .  A
O300        V304   1.912       .  S
O300        C307   1.266       .  A
O301        V304   1.887       .  S
O301        C306   1.262       .  A
O302        V304   1.885       .  S
O302        C305   1.260       .  A
V303        V304   2.086       .  T
C305       C1144   1.471       .  S
C306        C724   1.499       .  S
C307        C685   1.469       .  S
C308        C697   1.486       .  S
O309        V317   1.914       .  S
O309        C319   1.267       .  A
O310        V317   1.916       .  S
O310        C320   1.268       .  A
O311        V317   1.902       .  S
O311        C321   1.264       .  A
O312        V317   1.895       .  S
O312        C322   1.262       .  A
O313        V318   1.911       .  S
O313        C322   1.266       .  A
O314        V318   1.903       .  S
O314        C321   1.268       .  A
O315        V318   1.884       .  S
O315        C320   1.261       .  A
O316        V318   1.887       .  S
O316        C319   1.261       .  A
V317        V318   2.087       .  T
C319        C661   1.473       .  S
C320        C673   1.482       .  S
C321        C916   1.495       .  S
C322       C1096   1.475       .  S
O323        V331   1.912       .  S
O323        C333   1.266       .  A
O324        V331   1.915       .  S
O324        C334   1.268       .  A
O325        V331   1.887       .  S
O325        C335   1.261       .  A
O326        V331   1.883       .  S
O326        C336   1.260       .  A
O327        V332   1.918   1_554  S
O327        C336   1.268   1_554  A
O328        V332   1.912       .  S
O328        C335   1.269       .  A
O329        V332   1.886       .  S
O329        C334   1.261       .  A
O330        V332   1.886       .  S
O330        C333   1.260       .  A
V331        V332   2.086       .  T
C333        C952   1.468       .  S
C334        C676   1.479       .  S
C335        C700   1.489       .  S
C336        C649   1.477   1_556  S
O337        V345   1.911       .  S
O337        C347   1.266       .  A
O338        V345   1.915       .  S
O338        C348   1.269       .  A
O339        V345   1.890       .  S
O339        C349   1.262       .  A
O340        V345   1.890       .  S
O340        C350   1.262       .  A
O341        V346   1.916       .  S
O341        C350   1.268       .  A
O342        V346   1.914       .  S
O342        C349   1.269       .  A
O343        V346   1.887       .  S
O343        C348   1.260       .  A
O344        V346   1.885       .  S
O344        C347   1.260       .  A
V345        V346   2.087       .  T
C347       C1120   1.471       .  S
C348        C625   1.479       .  S
C349        C637   1.493       .  S
C350        C712   1.481       .  S
O351        V359   1.915       .  S
O351        C361   1.267       .  A
O352        V359   1.917       .  S
O352        C362   1.269       .  A
O353        V359   1.886       .  S
O353        C363   1.261       .  A
O354        V359   1.881       .  S
O354        C364   1.262       .  A
O355        V360   1.917       .  S
O355        C364   1.268       .  A
O356        V360   1.912       .  S
O356        C363   1.269       .  A
O357        V360   1.887       .  S
O357        C362   1.261       .  A
O358        V360   1.882       .  S
O358        C361   1.259       .  A
V359        V360   2.085       .  T
C361        C889   1.470       .  S
C362        C628   1.483       .  S
C363        C616   1.492       .  S
C364        C940   1.486   1_556  S
O365        V373   1.913       .  S
O365        C375   1.267       .  A
O366        V373   1.915       .  S
O366        C376   1.268       .  A
O367        V373   1.888       .  S
O367        C377   1.262       .  A
O368        V373   1.890       .  S
O368        C378   1.261       .  A
O369        V374   1.908       .  S
O369        C378   1.269       .  A
O370        V374   1.912       .  S
O370        C377   1.267       .  A
O371        V374   1.887       .  S
O371        C376   1.259       .  A
O372        V374   1.884       .  S
O372        C375   1.260       .  A
V373        V374   2.087       .  T
C375       C1216   1.472       .  S
C376        C604   1.473       .  S
C377        C664   1.480       .  S
C378        C592   1.487       .  S
O379        V387   1.911       .  S
O379        C389   1.266       .  A
O380        V387   1.914       .  S
O380        C390   1.268       .  A
O381        V387   1.876       .  S
O381        C391   1.261       .  A
O382        V387   1.884       .  S
O382        C392   1.261       .  A
O383        V388   1.915       .  S
O383        C392   1.270       .  A
O384        V388   1.921       .  S
O384        C391   1.269       .  A
O385        V388   1.887       .  S
O385        C390   1.262       .  A
O386        V388   1.884       .  S
O386        C389   1.260       .  A
V387        V388   2.085       .  T
C389        C772   1.470       .  S
C390        C601   1.489       .  S
C391       C1132   1.487       .  S
C392        C613   1.492       .  S
O393        V401   1.910       .  S
O393        C403   1.266       .  A
O394        V401   1.918       .  S
O394        C404   1.269       .  A
O395        V401   1.889       .  S
O395        C405   1.262       .  A
O396        V401   1.890       .  S
O396        C406   1.261       .  A
O397        V402   1.914       .  S
O397        C406   1.268       .  A
O398        V402   1.909       .  S
O398        C405   1.268       .  A
O399        V402   1.888       .  S
O399        C404   1.263       .  A
O400        V402   1.887       .  S
O400        C403   1.260       .  A
V401        V402   2.086       .  T
C403       C1348   1.469       .  S
C404        C580   1.495       .  S
C405        C589   1.488       .  S
C406        C808   1.479       .  S
O407        V415   1.916       .  S
O407        C417   1.267       .  A
O408        V415   1.917       .  S
O408        C418   1.268       .  A
O409        V415   1.897       .  S
O409        C419   1.263       .  A
O410        V415   1.899       .  S
O410        C420   1.264       .  A
O411        V416   1.908       .  S
O411        C420   1.266       .  A
O412        V416   1.904       .  S
O412        C419   1.267       .  A
O413        V416   1.889       .  S
O413        C418   1.259       .  A
O414        V416   1.883       .  S
O414        C417   1.262       .  A
V415        V416   2.087       .  T
C417        C688   1.481       .  S
C418        C577   1.475       .  S
C419        C565   1.489       .  S
C420       C1072   1.483       .  S
O421        V429   1.910       .  S
O421        C431   1.266       .  A
O422        V429   1.914       .  S
O422        C432   1.267       .  A
O423        V429   1.892       .  S
O423        C433   1.262       .  A
O424        V429   1.894       .  S
O424        C434   1.263       .  A
O425        V430   1.907       .  S
O425        C434   1.267       .  A
O426        V430   1.910       .  S
O426        C433   1.267       .  A
O427        V430   1.889       .  S
O427        C432   1.260       .  A
O428        V430   1.887       .  S
O428        C431   1.261       .  A
V429        V430   2.088       .  T
C431        C868   1.471       .  S
C432        C553   1.472       .  S
C433       C1024   1.480       .  S
C434        C568   1.488       .  S
O435        V443   1.915       .  S
O435        C445   1.267       .  A
O436        V443   1.921   1_655  S
O436        C446   1.270   1_655  A
O437        V443   1.885   1_655  S
O437        C447   1.260   1_655  A
O438        V443   1.888       .  S
O438        C448   1.261       .  A
O439        V444   1.914       .  S
O439        C448   1.270       .  A
O440        V444   1.916       .  S
O440        C447   1.268       .  A
O441        V444   1.884       .  S
O441        C446   1.261       .  A
O442        V444   1.881       .  S
O442        C445   1.259       .  A
V443        V444   2.084       .  T
C445       C1180   1.466       .  S
C446        C556   1.496   1_455  S
C447        C736   1.476   1_455  S
C448        C541   1.495       .  S
O449        V457   1.916       .  S
O449        C459   1.267       .  A
O450        V457   1.921       .  S
O450        C460   1.269       .  A
O451        V457   1.895       .  S
O451        C461   1.262       .  A
O452        V457   1.888       .  S
O452        C462   1.262       .  A
O453        V458   1.912       .  S
O453        C462   1.267       .  A
O454        V458   1.904       .  S
O454        C461   1.268       .  A
O455        V458   1.887       .  S
O455        C460   1.261       .  A
O456        V458   1.886       .  S
O456        C459   1.261       .  A
V457        V458   2.086       .  T
C459        C796   1.474       .  S
C460        C529   1.483       .  S
C461        C520   1.489       .  S
C462       C1288   1.477       .  S
O463        V471   1.916       .  S
O463        C473   1.268       .  A
O464        V471   1.922       .  S
O464        C474   1.270       .  A
O465        V471   1.895       .  S
O465        C475   1.262       .  A
O466        V471   1.887       .  S
O466        C476   1.261       .  A
O467        V472   1.915       .  S
O467        C476   1.268       .  A
O468        V472   1.909       .  S
O468        C475   1.269       .  A
O469        V472   1.886       .  S
O469        C474   1.261       .  A
O470        V472   1.886       .  S
O470        C473   1.261       .  A
V471        V472   2.085       .  T
C473        C988   1.476       .  S
C474        C532   1.490       .  S
C475        C544   1.495       .  S
C476        C904   1.476       .  S
O477        V485   1.919       .  S
O477        C487   1.269       .  A
O478        V485   1.921       .  S
O478        C488   1.270       .  A
O479        V485   1.883       .  S
O479        C489   1.260       .  A
O480        V485   1.885       .  S
O480        C490   1.260       .  A
O481        V486   1.915       .  S
O481        C490   1.270       .  A
O482        V486   1.919       .  S
O482        C489   1.270       .  A
O483        V486   1.884       .  S
O483        C488   1.261       .  A
O484        V486   1.886       .  S
O484        C487   1.259       .  A
V485        V486   2.085       .  T
C487        C652   1.477       .  S
C488        C505   1.486       .  S
C489       C1237   1.489       .  S
C490        C517   1.486       .  S
O491        V499   1.907       .  S
O491        C501   1.265       .  A
O492        V499   1.912       .  S
O492        C502   1.268       .  A
O493        V499   1.884       .  S
O493        C503   1.262       .  A
O494        V499   1.891       .  S
O494        C504   1.262       .  A
O495        V500   1.911       .  S
O495        C504   1.269       .  A
O496        V500   1.913       .  S
O496        C503   1.267       .  A
O497        V500   1.891       .  S
O497        C502   1.261       .  A
O498        V500   1.887       .  S
O498        C501   1.261       .  A
V499        V500   2.086       .  T
C501       C1009   1.468       .  S
C502        C508   1.478       .  S
C503        C832   1.479       .  S
C504        C640   1.493       .  S
C505        C506   1.409       .  A
C505        C510   1.411       .  A
C506        C507   1.401       .  A
C506        H511   1.085       .  S
C507        C508   1.407       .  A
C507        C514   1.444       .  S
C508        C509   1.406       .  A
C509        C510   1.404       .  A
C509        H512   1.085       .  S
C510        C513   1.442       .  S
C513        N515   1.157       .  T
C514        N516   1.157       .  T
C517        C518   1.403       .  A
C517        C522   1.417       .  A
C518        C519   1.403       .  A
C518        H523   1.085       .  S
C519        C520   1.418       .  A
C519        C526   1.444       .  S
C520        C521   1.403       .  A
C521        C522   1.398       .  A
C521        H524   1.085       .  S
C522        C525   1.444       .  S
C525        N527   1.157       .  T
C526        N528   1.157       .  T
C529        C530   1.406       .  A
C529        C534   1.411       .  A
C530        C531   1.411   1_545  A
C530        H535   1.084       .  S
C531        C532   1.416       .  A
C531        C538   1.443       .  S
C532        C533   1.405       .  A
C533        C534   1.397   1_565  A
C533        H536   1.085       .  S
C534        C537   1.446       .  S
C537        N539   1.157       .  T
C538        N540   1.157       .  T
C541        C542   1.405       .  A
C541        C546   1.420       .  A
C542        C543   1.404       .  A
C542        H547   1.085       .  S
C543        C544   1.420       .  A
C543        C550   1.444       .  S
C544        C545   1.404       .  A
C545        C546   1.401       .  A
C545        H548   1.085       .  S
C546        C549   1.445       .  S
C549        N551   1.157       .  T
C550        N552   1.157       .  T
C553        C554   1.403       .  A
C553        C558   1.404       .  A
C554        C555   1.407       .  A
C554        H559   1.085       .  S
C555        C556   1.417       .  A
C555        C562   1.443       .  S
C556        C557   1.412       .  A
C557        C558   1.399       .  A
C557        H560   1.084   1_655  S
C558        C561   1.445       .  S
C561        N563   1.157       .  T
C562        N564   1.157       .  T
C565        C566   1.404   1_455  A
C565        C570   1.417       .  A
C566        C567   1.400       .  A
C566        H571   1.085       .  S
C567        C568   1.416       .  A
C567        C574   1.444       .  S
C568        C569   1.405       .  A
C569        C570   1.403   1_655  A
C569        H572   1.084   1_655  S
C570        C573   1.444       .  S
C573        N575   1.157       .  T
C574        N576   1.157       .  T
C577        C578   1.404       .  A
C577        C582   1.406       .  A
C578        C579   1.408       .  A
C578        H583   1.085       .  S
C579        C580   1.418   1_455  A
C579        C586   1.443       .  S
C580        C581   1.410       .  A
C581        C582   1.398   1_655  A
C581        H584   1.084       .  S
C582        C585   1.445       .  S
C585        N587   1.157   1_455  T
C586        N588   1.157       .  T
C589        C590   1.405       .  A
C589        C594   1.417       .  A
C590        C591   1.402       .  A
C590        H595   1.084       .  S
C591        C592   1.417       .  A
C591        C598   1.445       .  S
C592        C593   1.402       .  A
C593        C594   1.399       .  A
C593        H596   1.084       .  S
C594        C597   1.444       .  S
C597        N599   1.157       .  T
C598        N600   1.158       .  T
C601        C602   1.410       .  A
C601        C606   1.415       .  A
C602        C603   1.399   1_565  A
C602        H607   1.085       .  S
C603        C604   1.405       .  A
C603        C610   1.444       .  S
C604        C605   1.404       .  A
C605        C606   1.404   1_545  A
C605        H608   1.085       .  S
C606        C609   1.443       .  S
C609        N611   1.157       .  T
C610        N612   1.157       .  T
C613        C614   1.410       .  A
C613        C618   1.412       .  A
C614        C615   1.401       .  A
C614        H619   1.084       .  S
C615        C616   1.412       .  A
C615        C622   1.444       .  S
C616        C617   1.411       .  A
C617        C618   1.402       .  A
C617        H620   1.084       .  S
C618        C621   1.444       .  S
C621        N623   1.157       .  T
C622        N624   1.157       .  T
C625        C626   1.407       .  A
C625        C630   1.408       .  A
C626        C627   1.403       .  A
C626        H631   1.085       .  S
C627        C628   1.410       .  A
C627        C634   1.444       .  S
C628        C629   1.408       .  A
C629        C630   1.402       .  A
C629        H632   1.085       .  S
C630        C633   1.444       .  S
C633        N635   1.157   1_556  T
C634        N636   1.157       .  T
C637        C638   1.410   1_556  A
C637        C642   1.413       .  A
C638        C639   1.402       .  A
C638        H643   1.084       .  S
C639        C640   1.413       .  A
C639        C646   1.444       .  S
C640        C641   1.410       .  A
C641        C642   1.403   1_554  A
C641        H644   1.084       .  S
C642        C645   1.444       .  S
C645        N647   1.157       .  T
C646        N648   1.157       .  T
C649        C650   1.403       .  A
C649        C654   1.410   1_565  A
C650        C651   1.399   1_565  A
C650        H655   1.085       .  S
C651        C652   1.408       .  A
C651        C658   1.441       .  S
C652        C653   1.407       .  A
C653        C654   1.405       .  A
C653        H656   1.085       .  S
C654        C657   1.444   1_545  S
C657        N659   1.157       .  T
C658        N660   1.156       .  T
C661        C662   1.404       .  A
C661        C666   1.407       .  A
C662        C663   1.402       .  A
C662        H667   1.085       .  S
C663        C664   1.412       .  A
C663        C670   1.444       .  S
C664        C665   1.406       .  A
C665        C666   1.400       .  A
C665        H668   1.085       .  S
C666        C669   1.442       .  S
C669        N671   1.157       .  T
C670        N672   1.157       .  T
C673        C674   1.406       .  A
C673        C678   1.414   1_545  A
C674        C675   1.407       .  A
C674        H679   1.084       .  S
C675        C676   1.412   1_545  A
C675        C682   1.443       .  S
C676        C677   1.402       .  A
C677        C678   1.396       .  A
C677        H680   1.085       .  S
C678        C681   1.446       .  S
C681        N683   1.157       .  T
C682        N684   1.157       .  T
C685        C686   1.405       .  A
C685        C690   1.406       .  A
C686        C687   1.405       .  A
C686        H691   1.085       .  S
C687        C688   1.411       .  A
C687        C694   1.442       .  S
C688        C689   1.406       .  A
C689        C690   1.396       .  A
C689        H692   1.085       .  S
C690        C693   1.445       .  S
C693        N695   1.157       .  T
C694        N696   1.157       .  T
C697        C698   1.402       .  A
C697        C702   1.417       .  A
C698        C699   1.398       .  A
C698        H703   1.085       .  S
C699        C700   1.418       .  A
C699        C706   1.445       .  S
C700        C701   1.405       .  A
C701        C702   1.403       .  A
C701        H704   1.085       .  S
C702        C705   1.444       .  S
C705        N707   1.157       .  T
C706        N708   1.157       .  T
C709        C710   1.401       .  A
C709        C714   1.412       .  A
C710        C711   1.403       .  A
C710        H715   1.083       .  S
C711        C712   1.415       .  A
C711        C718   1.444       .  S
C712        C713   1.403       .  A
C713        C714   1.403       .  A
C713        H716   1.085       .  S
C714        C717   1.444       .  S
C717        N719   1.157       .  T
C718        N720   1.157       .  T
C721        C722   1.405       .  A
C721        C726   1.405       .  A
C722        C723   1.411   1_655  A
C722        H727   1.085       .  S
C723        C724   1.419       .  A
C723        C730   1.443       .  S
C724        C725   1.411   1_455  A
C725        C726   1.398       .  A
C725        H728   1.084   1_655  S
C726        C729   1.445       .  S
C729        N731   1.157       .  T
C730        N732   1.157       .  T
C733        C734   1.399       .  A
C733        C738   1.413       .  A
C734        C735   1.401       .  A
C734        H739   1.085       .  S
C735        C736   1.415       .  A
C735        C742   1.444       .  S
C736        C737   1.401       .  A
C737        C738   1.401       .  A
C737        H740   1.085       .  S
C738        C741   1.445       .  S
C741        N743   1.157       .  T
C742        N744   1.157       .  T
C745        C746   1.404       .  A
C745        C750   1.418       .  A
C746        C747   1.402       .  A
C746        H751   1.085       .  S
C747        C748   1.419       .  A
C747        C754   1.444       .  S
C748        C749   1.405       .  A
C749        C750   1.404       .  A
C749        H752   1.085       .  S
C750        C753   1.444       .  S
C753        N755   1.157       .  T
C754        N756   1.157       .  T
C757        C758   1.400       .  A
C757        C762   1.412       .  A
C758        C759   1.393       .  A
C758        H763   1.086       .  S
C759        C760   1.414       .  A
C759        C766   1.446       .  S
C760        C761   1.407       .  A
C761        C762   1.409       .  A
C761        H764   1.084       .  S
C762        C765   1.443       .  S
C765        N767   1.157       .  T
C766        N768   1.157       .  T
C769        C770   1.406       .  A
C769        C774   1.411       .  A
C770        C771   1.400       .  A
C770        H775   1.085       .  S
C771        C772   1.408       .  A
C771        C778   1.444       .  S
C772        C773   1.403       .  A
C773        C774   1.400       .  A
C773        H776   1.085       .  S
C774        C777   1.445       .  S
C777        N779   1.157       .  T
C778        N780   1.157       .  T
C781        C782   1.409       .  A
C781        C786   1.412       .  A
C782        C783   1.400       .  A
C782        H787   1.085       .  S
C783        C784   1.411       .  A
C783        C790   1.445       .  S
C784        C785   1.407       .  A
C785        C786   1.401       .  A
C785        H788   1.085       .  S
C786        C789   1.444       .  S
C789        N791   1.157       .  T
C790        N792   1.157       .  T
C793        C794   1.406       .  A
C793        C798   1.411       .  A
C794        C795   1.400       .  A
C794        H799   1.085       .  S
C795        C796   1.407       .  A
C795        C802   1.442       .  S
C796        C797   1.405       .  A
C797        C798   1.402       .  A
C797        H800   1.085       .  S
C798        C801   1.444       .  S
C801        N803   1.157       .  T
C802        N804   1.156       .  T
C805        C806   1.405       .  A
C805        C810   1.410       .  A
C806        C807   1.401       .  A
C806        H811   1.085       .  S
C807        C808   1.410   1_455  A
C807        C814   1.444       .  S
C808        C809   1.406   1_655  A
C809        C810   1.404       .  A
C809        H812   1.085   1_455  S
C810        C813   1.443       .  S
C813        N815   1.157       .  T
C814        N816   1.157   1_455  T
C817        C818   1.405       .  A
C817        C822   1.408       .  A
C818        C819   1.403       .  A
C818        H823   1.084       .  S
C819        C820   1.412       .  A
C819        C826   1.443       .  S
C820        C821   1.410       .  A
C821        C822   1.404       .  A
C821        H824   1.084       .  S
C822        C825   1.444       .  S
C825        N827   1.157       .  T
C826        N828   1.157       .  T
C829        C830   1.405       .  A
C829        C834   1.407       .  A
C830        C831   1.404       .  A
C830        H835   1.085       .  S
C831        C832   1.412       .  A
C831        C838   1.444       .  S
C832        C833   1.404       .  A
C833        C834   1.397       .  A
C833        H836   1.085       .  S
C834        C837   1.441       .  S
C837        N839   1.156       .  T
C838        N840   1.157       .  T
C841        C842   1.410       .  A
C841        C846   1.413       .  A
C842        C843   1.405       .  A
C842        H847   1.084       .  S
C843        C844   1.412       .  A
C843        C850   1.443       .  S
C844        C845   1.408       .  A
C845        C846   1.399       .  A
C845        H848   1.085       .  S
C846        C849   1.444       .  S
C849        N851   1.157       .  T
C850        N852   1.157       .  T
C853        C854   1.404       .  A
C853        C858   1.407       .  A
C854        C855   1.408   1_655  A
C854        H859   1.085       .  S
C855        C856   1.417       .  A
C855        C862   1.443       .  S
C856        C857   1.408       .  A
C857        C858   1.398   1_455  A
C857        H860   1.085       .  S
C858        C861   1.446       .  S
C861        N863   1.157       .  T
C862        N864   1.157       .  T
C865        C866   1.401       .  A
C865        C870   1.415       .  A
C866        C867   1.401       .  A
C866        H871   1.085       .  S
C867        C868   1.412       .  A
C867        C874   1.444       .  S
C868        C869   1.399       .  A
C869        C870   1.400       .  A
C869        H872   1.085       .  S
C870        C873   1.444       .  S
C873        N875   1.157       .  T
C874        N876   1.157       .  T
C877        C878   1.404       .  A
C877        C882   1.418       .  A
C878        C879   1.400       .  A
C878        H883   1.085       .  S
C879        C880   1.415       .  A
C879        C886   1.444       .  S
C880        C881   1.404       .  A
C881        C882   1.403       .  A
C881        H884   1.084       .  S
C882        C885   1.445       .  S
C885        N887   1.157       .  T
C886        N888   1.157       .  T
C889        C890   1.399       .  A
C889        C894   1.411       .  A
C890        C891   1.401       .  A
C890        H895   1.085       .  S
C891        C892   1.415       .  A
C891        C898   1.444   1_556  S
C892        C893   1.402       .  A
C893        C894   1.401       .  A
C893        H896   1.085       .  S
C894        C897   1.445       .  S
C897        N899   1.157       .  T
C898        N900   1.157       .  T
C901        C902   1.407       .  A
C901        C906   1.410       .  A
C902        C903   1.403       .  A
C902        H907   1.085       .  S
C903        C904   1.409       .  A
C903        C910   1.445       .  S
C904        C905   1.404       .  A
C905        C906   1.403       .  A
C905        H908   1.085       .  S
C906        C909   1.441       .  S
C909        N911   1.156       .  T
C910        N912   1.157       .  T
C913        C914   1.405       .  A
C913        C918   1.420   1_554  A
C914        C915   1.406   1_565  A
C914        H919   1.084   1_565  S
C915        C916   1.419   1_554  A
C915        C922   1.444       .  S
C916        C917   1.404   1_545  A
C917        C918   1.399       .  A
C917        H920   1.085       .  S
C918        C921   1.445       .  S
C921        N923   1.157       .  T
C922        N924   1.157       .  T
C925        C926   1.401       .  A
C925        C930   1.415       .  A
C926        C927   1.405       .  A
C926        H931   1.085       .  S
C927        C928   1.419       .  A
C927        C934   1.444       .  S
C928        C929   1.404       .  A
C929        C930   1.405       .  A
C929        H932   1.085       .  S
C930        C933   1.445       .  S
C933        N935   1.157       .  T
C934        N936   1.157   1_554  T
C937        C938   1.405       .  A
C937        C942   1.407       .  A
C938        C939   1.408       .  A
C938        H943   1.085       .  S
C939        C940   1.414       .  A
C939        C946   1.443       .  S
C940        C941   1.405       .  A
C941        C942   1.394       .  A
C941        H944   1.085   1_554  S
C942        C945   1.443       .  S
C945        N947   1.156   1_554  T
C946        N948   1.157       .  T
C949        C950   1.406   1_654  A
C949        C954   1.420   1_655  A
C950        C951   1.405       .  A
C950        H955   1.084   1_455  S
C951        C952   1.410       .  A
C951        C958   1.444       .  S
C952        C953   1.396       .  A
C953        C954   1.397   1_556  A
C953        H956   1.086   1_556  S
C954        C957   1.446       .  S
C957        N959   1.157   1_455  T
C958        N960   1.157       .  T
C961        C962   1.395       .  A
C961        C966   1.410       .  A
C962        C963   1.395       .  A
C962        H967   1.085       .  S
C963        C964   1.420       .  A
C963        C970   1.445       .  S
C964        C965   1.407       .  A
C965        C966   1.406       .  A
C965        H968   1.084       .  S
C966        C969   1.444       .  S
C969        N971   1.157       .  T
C970        N972   1.157       .  T
C973        C974   1.410   1_655  A
C973        C978   1.409   1_655  A
C974        C975   1.403       .  A
C974        H979   1.085   1_455  S
C975        C976   1.407       .  A
C975        C982   1.444       .  S
C976        C977   1.407       .  A
C977        C978   1.402       .  A
C977        H980   1.085       .  S
C978        C981   1.443   1_455  S
C981        N983   1.157       .  T
C982        N984   1.157       .  T
C985        C986   1.402       .  A
C985        C990   1.414       .  A
C986        C987   1.402       .  A
C986        H991   1.085       .  S
C987        C988   1.413       .  A
C987        C994   1.445       .  S
C988        C989   1.401       .  A
C989        C990   1.403       .  A
C989        H992   1.085       .  S
C990        C993   1.444       .  S
C993        N995   1.157       .  T
C994        N996   1.157       .  T
C997        C998   1.396       .  A
C997       C1002   1.409       .  A
C998        C999   1.398       .  A
C998       H1003   1.085       .  S
C999       C1000   1.421       .  A
C999       C1006   1.444       .  S
C1000      C1001   1.407       .  A
C1001      C1002   1.406       .  A
C1001      H1004   1.084       .  S
C1002      C1005   1.444       .  S
C1005      N1007   1.157       .  T
C1006      N1008   1.157       .  T
C1009      C1010   1.399       .  A
C1009      C1014   1.411       .  A
C1010      C1011   1.398       .  A
C1010      H1015   1.085       .  S
C1011      C1012   1.414       .  A
C1011      C1018   1.445       .  S
C1012      C1013   1.403       .  A
C1013      C1014   1.402       .  A
C1013      H1016   1.085       .  S
C1014      C1017   1.445       .  S
C1017      N1019   1.157       .  T
C1018      N1020   1.157       .  T
C1021      C1022   1.400       .  A
C1021      C1026   1.410       .  A
C1022      C1023   1.402       .  A
C1022      H1027   1.081       .  S
C1023      C1024   1.414       .  A
C1023      C1030   1.445       .  S
C1024      C1025   1.404       .  A
C1025      C1026   1.402       .  A
C1025      H1028   1.085       .  S
C1026      C1029   1.444       .  S
C1029      N1031   1.157       .  T
C1030      N1032   1.157       .  T
C1033      C1034   1.403       .  A
C1033      C1038   1.420       .  A
C1034      C1035   1.407       .  A
C1034      H1039   1.085       .  S
C1035      C1036   1.420       .  A
C1035      C1042   1.444       .  S
C1036      C1037   1.401       .  A
C1037      C1038   1.402       .  A
C1037      H1040   1.085       .  S
C1038      C1041   1.445       .  S
C1041      N1043   1.157       .  T
C1042      N1044   1.157       .  T
C1045      C1046   1.408       .  A
C1045      C1050   1.408       .  A
C1046      C1047   1.405       .  A
C1046      H1051   1.085       .  S
C1047      C1048   1.410       .  A
C1047      C1054   1.444       .  S
C1048      C1049   1.408       .  A
C1049      C1050   1.402       .  A
C1049      H1052   1.085       .  S
C1050      C1053   1.444       .  S
C1053      N1055   1.157       .  T
C1054      N1056   1.157       .  T
C1057      C1058   1.399       .  A
C1057      C1062   1.413       .  A
C1058      C1059   1.400       .  A
C1058      H1063   1.085       .  S
C1059      C1060   1.413       .  A
C1059      C1066   1.441       .  S
C1060      C1061   1.403       .  A
C1061      C1062   1.403       .  A
C1061      H1064   1.085       .  S
C1062      C1065   1.445       .  S
C1065      N1067   1.157       .  T
C1066      N1068   1.156       .  T
C1069      C1070   1.401       .  A
C1069      C1074   1.411       .  A
C1070      C1071   1.403       .  A
C1070      H1075   1.083       .  S
C1071      C1072   1.414       .  A
C1071      C1078   1.442       .  S
C1072      C1073   1.404       .  A
C1073      C1074   1.403       .  A
C1073      H1076   1.084       .  S
C1074      C1077   1.444       .  S
C1077      N1079   1.157       .  T
C1078      N1080   1.156       .  T
C1081      C1082   1.402       .  A
C1081      C1086   1.416       .  A
C1082      C1083   1.401       .  A
C1082      H1087   1.085       .  S
C1083      C1084   1.410       .  A
C1083      C1090   1.444       .  S
C1084      C1085   1.398       .  A
C1085      C1086   1.398       .  A
C1085      H1088   1.085       .  S
C1086      C1089   1.445       .  S
C1089      N1091   1.157       .  T
C1090      N1092   1.157       .  T
C1093      C1094   1.407       .  A
C1093      C1098   1.414       .  A
C1094      C1095   1.397       .  A
C1094      H1099   1.085       .  S
C1095      C1096   1.406       .  A
C1095      C1102   1.443       .  S
C1096      C1097   1.403       .  A
C1097      C1098   1.407       .  A
C1097      H1100   1.081       .  S
C1098      C1101   1.442       .  S
C1101      N1103   1.157       .  T
C1102      N1104   1.157       .  T
C1105      C1106   1.412       .  A
C1105      C1110   1.416       .  A
C1106      C1107   1.403       .  A
C1106      H1111   1.084       .  S
C1107      C1108   1.406       .  A
C1107      C1114   1.445       .  S
C1108      C1109   1.405       .  A
C1109      C1110   1.407       .  A
C1109      H1112   1.085       .  S
C1110      C1113   1.443       .  S
C1113      N1115   1.157       .  T
C1114      N1116   1.157       .  T
C1117      C1118   1.402       .  A
C1117      C1122   1.413       .  A
C1118      C1119   1.401       .  A
C1118      H1123   1.085       .  S
C1119      C1120   1.413       .  A
C1119      C1126   1.445       .  S
C1120      C1121   1.398       .  A
C1121      C1122   1.399       .  A
C1121      H1124   1.085       .  S
C1122      C1125   1.442       .  S
C1125      N1127   1.156       .  T
C1126      N1128   1.157       .  T
C1129      C1130   1.406       .  A
C1129      C1134   1.407       .  A
C1130      C1131   1.410       .  A
C1130      H1135   1.085       .  S
C1131      C1132   1.415       .  A
C1131      C1138   1.443       .  S
C1132      C1133   1.405       .  A
C1133      C1134   1.392       .  A
C1133      H1136   1.085       .  S
C1134      C1137   1.443       .  S
C1137      N1139   1.156       .  T
C1138      N1140   1.157       .  T
C1141      C1142   1.403       .  A
C1141      C1146   1.419       .  A
C1142      C1143   1.402       .  A
C1142      H1147   1.084       .  S
C1143      C1144   1.412       .  A
C1143      C1150   1.443       .  S
C1144      C1145   1.398       .  A
C1145      C1146   1.399       .  A
C1145      H1148   1.085       .  S
C1146      C1149   1.445       .  S
C1149      N1151   1.157       .  T
C1150      N1152   1.157       .  T
C1153      C1154   1.403       .  A
C1153      C1158   1.410       .  A
C1154      C1155   1.400       .  A
C1154      H1159   1.083       .  S
C1155      C1156   1.409       .  A
C1155      C1162   1.441       .  S
C1156      C1157   1.406       .  A
C1157      C1158   1.403       .  A
C1157      H1160   1.085       .  S
C1158      C1161   1.443       .  S
C1161      N1163   1.157       .  T
C1162      N1164   1.156       .  T
C1165      C1166   1.399       .  A
C1165      C1170   1.416       .  A
C1166      C1167   1.403       .  A
C1166      H1171   1.085       .  S
C1167      C1168   1.420       .  A
C1167      C1174   1.445       .  S
C1168      C1169   1.402       .  A
C1169      C1170   1.405       .  A
C1169      H1172   1.084       .  S
C1170      C1173   1.444       .  S
C1173      N1175   1.157       .  T
C1174      N1176   1.157       .  T
C1177      C1178   1.407       .  A
C1177      C1182   1.421       .  A
C1178      C1179   1.407       .  A
C1178      H1183   1.084       .  S
C1179      C1180   1.410       .  A
C1179      C1186   1.444       .  S
C1180      C1181   1.394       .  A
C1181      C1182   1.394       .  A
C1181      H1184   1.085       .  S
C1182      C1185   1.446       .  S
C1185      N1187   1.158       .  T
C1186      N1188   1.157       .  T
C1189      C1190   1.402       .  A
C1189      C1194   1.419       .  A
C1190      C1191   1.399       .  A
C1190      H1195   1.085       .  S
C1191      C1192   1.421       .  A
C1191      C1198   1.445       .  S
C1192      C1193   1.403       .  A
C1193      C1194   1.404       .  A
C1193      H1196   1.085       .  S
C1194      C1197   1.444       .  S
C1197      N1199   1.157       .  T
C1198      N1200   1.157       .  T
C1201      C1202   1.400       .  A
C1201      C1206   1.413       .  A
C1202      C1203   1.401       .  A
C1202      H1207   1.082       .  S
C1203      C1204   1.414       .  A
C1203      C1210   1.444       .  S
C1204      C1205   1.402       .  A
C1205      C1206   1.402       .  A
C1205      H1208   1.085       .  S
C1206      C1209   1.445       .  S
C1209      N1211   1.157       .  T
C1210      N1212   1.157       .  T
C1213      C1214   1.400       .  A
C1213      C1218   1.415       .  A
C1214      C1215   1.399       .  A
C1214      H1219   1.085       .  S
C1215      C1216   1.413       .  A
C1215      C1222   1.443       .  S
C1216      C1217   1.399       .  A
C1217      C1218   1.401       .  A
C1217      H1220   1.085       .  S
C1218      C1221   1.444       .  S
C1221      N1223   1.157       .  T
C1222      N1224   1.157       .  T
C1225      C1226   1.404   1_655  A
C1225      C1230   1.420   1_556  A
C1226      C1227   1.403       .  A
C1226      H1231   1.085       .  S
C1227      C1228   1.420   1_556  A
C1227      C1234   1.444       .  S
C1228      C1229   1.403   1_455  A
C1229      C1230   1.400       .  A
C1229      H1232   1.085       .  S
C1230      C1233   1.445       .  S
C1233      N1235   1.157       .  T
C1234      N1236   1.157       .  T
C1237      C1238   1.407   1_554  A
C1237      C1242   1.421       .  A
C1238      C1239   1.405       .  A
C1238      H1243   1.084       .  S
C1239      C1240   1.409       .  A
C1239      C1246   1.444       .  S
C1240      C1241   1.396       .  A
C1241      C1242   1.398   1_556  A
C1241      H1244   1.085   1_556  S
C1242      C1245   1.445       .  S
C1245      N1247   1.158       .  T
C1246      N1248   1.157       .  T
C1249      C1250   1.409       .  A
C1249      C1254   1.413       .  A
C1250      C1251   1.402       .  A
C1250      H1255   1.085       .  S
C1251      C1252   1.413       .  A
C1251      C1258   1.444       .  S
C1252      C1253   1.408       .  A
C1253      C1254   1.399       .  A
C1253      H1256   1.085       .  S
C1254      C1257   1.444       .  S
C1257      N1259   1.157       .  T
C1258      N1260   1.157       .  T
C1261      C1262   1.409       .  A
C1261      C1266   1.411       .  A
C1262      C1263   1.406       .  A
C1262      H1267   1.085       .  S
C1263      C1264   1.411       .  A
C1263      C1270   1.444       .  S
C1264      C1265   1.407       .  A
C1265      C1266   1.405       .  A
C1265      H1268   1.085       .  S
C1266      C1269   1.444       .  S
C1269      N1271   1.157   1_556  T
C1270      N1272   1.157   1_655  T
C1273      C1274   1.401       .  A
C1273      C1278   1.413       .  A
C1274      C1275   1.401       .  A
C1274      H1279   1.085       .  S
C1275      C1276   1.411       .  A
C1275      C1282   1.443       .  S
C1276      C1277   1.401       .  A
C1277      C1278   1.401       .  A
C1277      H1280   1.084       .  S
C1278      C1281   1.445   1_554  S
C1281      N1283   1.157       .  T
C1282      N1284   1.157       .  T
C1285      C1286   1.406       .  A
C1285      C1290   1.408       .  A
C1286      C1287   1.403       .  A
C1286      H1291   1.085       .  S
C1287      C1288   1.410       .  A
C1287      C1294   1.444       .  S
C1288      C1289   1.403       .  A
C1289      C1290   1.399       .  A
C1289      H1292   1.082       .  S
C1290      C1293   1.443       .  S
C1293      N1295   1.157       .  T
C1294      N1296   1.157       .  T
C1297      C1298   1.394       .  A
C1297      C1302   1.408       .  A
C1298      C1299   1.393       .  A
C1298      H1303   1.085       .  S
C1299      C1300   1.421       .  A
C1299      C1306   1.446       .  S
C1300      C1301   1.409       .  A
C1301      C1302   1.407       .  A
C1301      H1304   1.084       .  S
C1302      C1305   1.443       .  S
C1305      N1307   1.157       .  T
C1306      N1308   1.158       .  T
C1309      C1310   1.402   1_545  A
C1309      C1314   1.420       .  A
C1310      C1311   1.402       .  A
C1310      H1315   1.085       .  S
C1311      C1312   1.422       .  A
C1311      C1318   1.445       .  S
C1312      C1313   1.403       .  A
C1313      C1314   1.403   1_565  A
C1313      H1316   1.085   1_565  S
C1314      C1317   1.445       .  S
C1317      N1319   1.157       .  T
C1318      N1320   1.157       .  T
C1321      C1322   1.407       .  A
C1321      C1326   1.412       .  A
C1322      C1323   1.398       .  A
C1322      H1327   1.085       .  S
C1323      C1324   1.407       .  A
C1323      C1330   1.445       .  S
C1324      C1325   1.405       .  A
C1325      C1326   1.407       .  A
C1325      H1328   1.085       .  S
C1326      C1329   1.441       .  S
C1329      N1331   1.157       .  T
C1330      N1332   1.157       .  T
C1333      C1334   1.410       .  A
C1333      C1338   1.410       .  A
C1334      C1335   1.404   1_545  A
C1334      H1339   1.085       .  S
C1335      C1336   1.408       .  A
C1335      C1342   1.443       .  S
C1336      C1337   1.407   1_565  A
C1337      C1338   1.403       .  A
C1337      H1340   1.085       .  S
C1338      C1341   1.443       .  S
C1341      N1343   1.157       .  T
C1342      N1344   1.157       .  T
C1345      C1346   1.403   1_565  A
C1345      C1350   1.414   1_565  A
C1346      C1347   1.401       .  A
C1346      H1351   1.085   1_545  S
C1347      C1348   1.411       .  A
C1347      C1354   1.444       .  S
C1348      C1349   1.397       .  A
C1349      C1350   1.399       .  A
C1349      H1352   1.085       .  S
C1350      C1353   1.441   1_545  S
C1353      N1355   1.156       .  T
C1354      N1356   1.157       .  T
C1357      C1358   1.403       .  A
C1357      C1362   1.417       .  A
C1358      C1359   1.400       .  A
C1358      H1363   1.085       .  S
C1359      C1360   1.419       .  A
C1359      C1366   1.445       .  S
C1360      C1361   1.403       .  A
C1361      C1362   1.398       .  A
C1361      H1364   1.085       .  S
C1362      C1365   1.444       .  S
C1365      N1367   1.157       .  T
C1366      N1368   1.157       .  T
