geometry optimzed in LAMMPS
_audit_creation_date              2020-12-01 
_audit_creation_method            'lammps2cif' 
_symmetry_space_group_name_H-M    'P1' 
_symmetry_Int_Tables_number       1 
_symmetry_cell_setting            triclinic 
loop_ 
_symmetry_equiv_pos_as_xyz 
  x,y,z 
_cell_length_a                    30.20447749 
_cell_length_b                    30.19167097661177 
_cell_length_c                    88.08916762056593 
_cell_angle_alpha                 89.95261520837995 
_cell_angle_beta                  89.97883114559993 
_cell_angle_gamma                 120.25088336217027 
loop_ 
_atom_site_label 
_atom_site_type_symbol 
_atom_site_fract_x 
_atom_site_fract_y 
_atom_site_fract_z 
_atom_site_charge 
O1          O  0.94704167  0.64323621  0.26240566    -0.72200
O2          O  0.94627407  0.77162257  0.25507907    -0.73200
O3          O  0.92920387  0.68910816  0.23631856    -0.61800
O4          O  0.96811685  0.72933304  0.28084605    -0.70200
O5          O  0.04955229  0.76716361  0.27390004    -0.69700
O6          O  0.01216190  0.72851392  0.23092259    -0.61000
O7          O  0.02836495  0.81328949  0.24873264    -0.73500
O8          O  0.02907536  0.68019677  0.25600497    -0.72300
Cu9        Cu  0.94481246  0.70687532  0.25890924     1.04600
Cu10       Cu  0.03265576  0.74860122  0.25222135     1.04300
C11         C  0.98737274  0.64059773  0.26036145     0.94000
C12         C  0.98579373  0.81241056  0.25053458     0.93200
C13         C  0.96565225  0.70375235  0.22659978     0.85300
C14         C  0.01589765  0.75531247  0.28424695     0.91600
O15         O  0.15044443  0.86613288  0.39938057    -0.72200
O16         O  0.18846863  0.91540118  0.44194893    -0.73200
O17         O  0.09907842  0.88252066  0.42398949    -0.61800
O18         O  0.24094175  0.90152268  0.41754609    -0.70200
O19         O  0.26799022  0.98119355  0.41012975    -0.69700
O20         O  0.12922796  0.96288735  0.41639508    -0.61000
O21         O  0.21720763  0.99589414  0.43505371    -0.73500
O22         O  0.17819763  0.94551375  0.39152764    -0.72300
Cu23       Cu  0.16875086  0.88860851  0.42094262     1.04600
Cu24       Cu  0.19918811  0.97410006  0.41296286     1.04300
C25         C  0.15737172  0.89744756  0.38866908     0.94000
C26         C  0.20887335  0.96273961  0.44540659     0.93200
C27         C  0.09242610  0.92037893  0.42118592     0.85300
C28         C  0.27736891  0.94541649  0.41322258     0.91600
O29         O  0.89614539  0.19269674  0.23189483    -0.72200
O30         O  0.85814553  0.15112067  0.27434949    -0.73200
O31         O  0.87706069  0.23902530  0.25668906    -0.61800
O32         O  0.88227361  0.10815878  0.24930494    -0.70200
O33         O  0.96410483  0.15146927  0.25609057    -0.69700
O34         O  0.95894112  0.27715780  0.26340811    -0.61000
O35         O  0.93957280  0.19113201  0.28149934    -0.73500
O36         O  0.97903743  0.23386105  0.23756002    -0.72300
Cu37       Cu  0.87543643  0.17137214  0.25288512     1.04600
Cu38       Cu  0.96323563  0.21494307  0.25988372     1.04300
C39         C  0.94274797  0.21913184  0.22782937     0.94000
C40         C  0.89185365  0.16252949  0.28460625     0.93200
C41         C  0.91848439  0.27914012  0.26094150     0.85300
C42         C  0.92515711  0.11013999  0.25165089     0.91600
O43         O  0.76286971  0.05728983  0.39867650    -0.72200
O44         O  0.72156767  0.01886836  0.44116959    -0.73200
O45         O  0.80257357  0.02672552  0.42304476    -0.61800
O46         O  0.67941493  0.04560410  0.41676004    -0.70200
O47         O  0.63469519  0.96447026  0.40932601    -0.69700
O48         O  0.75374888  0.94528037  0.41651557    -0.61000
O49         O  0.67379088  0.93656200  0.43509377    -0.73500
O50         O  0.71854961  0.97618130  0.39124350    -0.72300
Cu51       Cu  0.74314737  0.03993688  0.42011085     1.04600
Cu52       Cu  0.69335655  0.95274189  0.41277840     1.04300
C53         C  0.74890535  0.02370540  0.38825589     0.94000
C54         C  0.69209030  0.97242998  0.44503270     0.93200
C55         C  0.79690089  0.98216627  0.42084153     0.85300
C56         C  0.63742132  0.00725905  0.41205742     0.91600
O57         O  0.14603747  0.99653838  0.58686214    -0.72200
O58         O  0.28018292  0.00615446  0.59449093    -0.73200
O59         O  0.21012930  0.02118276  0.61278349    -0.61800
O60         O  0.21632921  0.98589386  0.56836341    -0.70200
O61         O  0.25422194  0.06877632  0.56297458    -0.69700
O62         O  0.25193511  0.10315584  0.60641618    -0.61000
O63         O  0.32196154  0.08797000  0.58767039    -0.73500
O64         O  0.18275433  0.07944011  0.58158790    -0.72300
Cu65       Cu  0.21198412  0.99970491  0.59087863     1.04600
Cu66       Cu  0.25426999  0.08781123  0.58452274     1.04300
C67         C  0.14229182  0.03515618  0.58298522     0.94000
C68         C  0.32227634  0.04737261  0.59187937     0.93200
C69         C  0.22947146  0.06849757  0.61648004     0.85300
C70         C  0.23564707  0.02253116  0.55862760     0.91600
O71         O  0.26477368  0.30015847  0.74442523    -0.72200
O72         O  0.13822379  0.17146862  0.75447093    -0.73200
O73         O  0.20792354  0.25667985  0.77173062    -0.61800
O74         O  0.19569378  0.21106041  0.72734416    -0.70200
O75         O  0.24256802  0.17600625  0.73319405    -0.69700
O76         O  0.25209226  0.21764897  0.77620319    -0.61000
O77         O  0.18044170  0.13072770  0.75944380    -0.73500
O78         O  0.31214570  0.26543361  0.75009691    -0.72300
Cu79       Cu  0.20015662  0.23616675  0.74926088     1.04600
Cu80       Cu  0.24846777  0.19619735  0.75485157     1.04300
C81         C  0.30860921  0.30431834  0.74595461     0.94000
C82         C  0.13827484  0.13121352  0.75872173     0.93200
C83         C  0.23172893  0.24306488  0.78098951     0.85300
C84         C  0.21746279  0.18565239  0.72341885     0.91600
O85         O  0.66707835  0.92140428  0.56497957    -0.72200
O86         O  0.66252495  0.89745570  0.60886157    -0.73200
O87         O  0.60299525  0.92116981  0.58847314    -0.61800
O88         O  0.72991853  0.90422465  0.58490253    -0.70200
O89         O  0.77818702  0.98810039  0.58860269    -0.69700
O90         O  0.65626393  0.00383630  0.59225138    -0.61000
O91         O  0.71484934  0.98012735  0.61338191    -0.73500
O92         O  0.71773131  0.00524171  0.56737385    -0.72300
Cu93       Cu  0.66380894  0.90819525  0.58673521     1.04600
Cu94       Cu  0.71835566  0.99725787  0.59058672     1.04300
C95         C  0.69247404  0.96551183  0.55895154     0.94000
C96         C  0.68826487  0.93366733  0.61815148     0.93200
C97         C  0.61062776  0.96666172  0.59053913     0.85300
C98         C  0.77423016  0.94485087  0.58605923     0.91600
O99         O  0.66772295  0.75844228  0.77536022    -0.72200
O100        O  0.66385943  0.79658458  0.73250741    -0.73200
O101        O  0.60018029  0.70808621  0.75085327    -0.61800
O102        O  0.73323360  0.84426945  0.75725364    -0.70200
O103        O  0.77569833  0.80620615  0.74941560    -0.69700
O104        O  0.64769793  0.67445458  0.74429102    -0.61000
O105        O  0.70787596  0.76036514  0.72481530    -0.73500
O106        O  0.71507240  0.72401750  0.76922328    -0.72300
Cu107      Cu  0.66457270  0.77807610  0.75417921     1.04600
Cu108      Cu  0.71293286  0.73984517  0.74667370     1.04300
C109        C  0.69239274  0.73633969  0.77926967     0.94000
C110        C  0.68544681  0.78587808  0.72182320     0.93200
C111        C  0.60376869  0.66916979  0.74683693     0.85300
C112        C  0.77553243  0.84572930  0.75428347     0.91600
O113        O  0.65520299  0.67286589  0.92908717    -0.72200
O114        O  0.78538853  0.80206813  0.92201113    -0.73200
O115        O  0.70140501  0.73817511  0.90304421    -0.61800
O116        O  0.74350564  0.73592196  0.94725743    -0.70200
O117        O  0.77923562  0.69152603  0.93944067    -0.69700
O118        O  0.73903759  0.69373235  0.89711982    -0.61000
O119        O  0.82509769  0.76074003  0.91465386    -0.73500
O120        O  0.68978326  0.62660887  0.92188552    -0.72300
Cu121      Cu  0.71989869  0.73865378  0.92559925     1.04600
Cu122      Cu  0.75943689  0.69150280  0.91806580     1.04300
C123        C  0.65105675  0.62938233  0.92665043     0.94000
C124        C  0.82555399  0.80274134  0.91734367     0.93200
C125        C  0.71520618  0.71647538  0.89305946     0.85300
C126        C  0.76914653  0.71346962  0.95009856     0.91600
O127        O  0.97255958  0.67053732  0.07755491    -0.72200
O128        O  0.98065508  0.80390368  0.08436595    -0.73200
O129        O  0.98766854  0.73275098  0.10373709    -0.61800
O130        O  0.96112485  0.74064663  0.05837592    -0.70200
O131        O  0.87806338  0.69708633  0.06362818    -0.69700
O132        O  0.90374112  0.69449217  0.10741622    -0.61000
O133        O  0.89651635  0.76569302  0.08792147    -0.73500
O134        O  0.88955070  0.62825159  0.08297439    -0.72300
Cu135      Cu  0.97849252  0.73838407  0.08082447     1.04600
Cu136      Cu  0.88911313  0.69505591  0.08561008     1.04300
C137        C  0.93073881  0.62835030  0.07938928     0.94000
C138        C  0.94067615  0.80643624  0.08715165     0.93200
C139        C  0.94876192  0.71202765  0.11267729     0.85300
C140        C  0.91425068  0.71917288  0.05401540     0.91600
O141        O  0.27957943  0.29796127  0.93086159    -0.72200
O142        O  0.15208862  0.16845691  0.92184706    -0.73200
O143        O  0.23619186  0.23720165  0.90418525    -0.61800
O144        O  0.19096963  0.22921721  0.94839581    -0.70200
O145        O  0.15467368  0.27424253  0.94170458    -0.69700
O146        O  0.19702328  0.28078113  0.89879684    -0.61000
O147        O  0.11058101  0.20905331  0.91578953    -0.73500
O148        O  0.24407338  0.34394748  0.92431206    -0.72300
Cu149      Cu  0.21611021  0.23187765  0.92659828     1.04600
Cu150      Cu  0.17522818  0.27862593  0.92003936     1.04300
C151        C  0.28339857  0.34143060  0.92858532     0.94000
C152        C  0.11181436  0.16730641  0.91703825     0.93200
C153        C  0.22241916  0.25983113  0.89453881     0.85300
C154        C  0.16460243  0.25035641  0.95185532     0.91600
O155        O  0.02291794  0.26983879  0.10982205    -0.72200
O156        O  0.05893766  0.27354252  0.06663754    -0.73200
O157        O  0.03443363  0.33527695  0.08557079    -0.61800
O158        O  0.04360778  0.20631172  0.09129585    -0.70200
O159        O  0.96016925  0.16033385  0.08662908    -0.69700
O160        O  0.95296118  0.28585314  0.07903341    -0.61000
O161        O  0.97734420  0.22284706  0.06054788    -0.73500
O162        O  0.93976830  0.22423400  0.10500701    -0.72300
Cu163      Cu  0.04283934  0.27295151  0.08846573     1.04600
Cu164      Cu  0.95468215  0.22172939  0.08253122     1.04300
C165        C  0.97671589  0.24717390  0.11447157     0.94000
C166        C  0.02477090  0.24837245  0.05669567     0.93200
C167        C  0.99127607  0.33021443  0.08162730     0.85300
C168        C  0.00209557  0.16287334  0.09035732     0.91600
C169        C  0.11226432  0.20693079  0.99218969    -0.13600
C170        C  0.09826728  0.24342113  0.99605769     0.16800
C171        C  0.10779045  0.28247409  0.98554648     0.03100
C172        C  0.13062915  0.28447718  0.97155098    -0.12100
C173        C  0.14432191  0.24787404  0.96749497    -0.03200
C174        C  0.13505054  0.20880759  0.97805637     0.02300
C175        C  0.07793785  0.24348575  0.01149256     0.09200
N176        N  0.09338307  0.31992152  0.98879295     0.65500
H177        H  0.13706682  0.31477417  0.96371904     0.18400
N178        N  0.14725996  0.17004139  0.97451066     0.76000
H179        H  0.10614536  0.17730750  0.00023554     0.09900
C180        C  0.03225643  0.20165358  0.01719982     0.03600
C181        C  0.01422202  0.20445291  0.03170058    -0.05100
C182        C  0.04152425  0.24821737  0.04082330    -0.23500
C183        C  0.08747780  0.28984764  0.03508020     0.12900
C184        C  0.10512453  0.28704012  0.02063015    -0.12600
N185        N  0.00361913  0.15619512  0.00839659     0.64600
H186        H  0.97948885  0.17183534  0.03596704     0.12400
N187        N  0.11648893  0.33581191  0.04367779     0.61200
H188        H  0.14052575  0.31919493  0.01652574     0.08600
O189        O  0.11291833  0.12748487  0.96934830    -0.40300
O190        O  0.18923013  0.17497001  0.97894063    -0.39400
O191        O  0.12752720  0.36625871  0.99058617    -0.39400
O192        O  0.04710549  0.30816978  0.98755615    -0.37100
O193        O  0.15707418  0.34409892  0.05025299    -0.38000
O194        O  0.10657645  0.37157974  0.04251039    -0.34200
O195        O  0.00576529  0.11658650  0.01161688    -0.35600
O196        O  0.96940714  0.15274437  0.99945476    -0.39900
C197        C  0.97038969  0.53252987  0.06758331    -0.13600
C198        C  0.94537032  0.49414182  0.07851382     0.16800
C199        C  0.91180278  0.49772548  0.08889002     0.03100
C200        C  0.90481261  0.54030260  0.08845458    -0.12100
C201        C  0.93164049  0.57997449  0.07791782    -0.03200
C202        C  0.96405290  0.57534009  0.06724549     0.02300
C203        C  0.95702099  0.45211597  0.07929272     0.09200
N204        N  0.88559599  0.45903225  0.10014371     0.65500
H205        H  0.88028994  0.54347465  0.09681028     0.18400
N206        N  0.99114860  0.61402642  0.05603963     0.76000
H207        H  0.99597444  0.52984883  0.05951783     0.09900
C208        C  0.93577581  0.41158247  0.06879940     0.03600
C209        C  0.94881546  0.37323736  0.06945617    -0.05100
C210        C  0.98371690  0.37489852  0.08032140    -0.23500
C211        C  0.00607067  0.41638204  0.09059756     0.12900
C212        C  0.99237587  0.45443442  0.09005123    -0.12600
N213        N  0.90034549  0.40856022  0.05753730     0.64600
H214        H  0.93118977  0.34172263  0.06149459     0.12400
N215        N  0.04082225  0.41922809  0.10207256     0.61200
H216        H  0.00935961  0.48590188  0.09804021     0.08600
O217        O  0.97051430  0.61090694  0.04333251    -0.40300
O218        O  0.03834695  0.64539255  0.05776614    -0.39400
O219        O  0.90239979  0.46652387  0.11356595    -0.39400
O220        O  0.84177131  0.42140540  0.09728589    -0.37100
O221        O  0.08842824  0.44788391  0.10011766    -0.38000
O222        O  0.02395422  0.40028478  0.11501961    -0.34200
O223        O  0.91569054  0.42316391  0.04415442    -0.35600
O224        O  0.85290344  0.38384908  0.06030619    -0.39900
C225        C  0.93465887  0.92801526  0.08271389    -0.13600
C226        C  0.97373845  0.96078491  0.09270630     0.16800
C227        C  0.99864272  0.94136730  0.10164262     0.03100
C228        C  0.98597892  0.89028331  0.09994624    -0.12100
C229        C  0.94756301  0.85760862  0.08976866    -0.03200
C230        C  0.92125360  0.87651031  0.08123260     0.02300
C231        C  0.98665734  0.01470713  0.09389417     0.09200
N232        N  0.03584377  0.97266083  0.11273041     0.65500
H233        H  0.00625264  0.87602037  0.10659335     0.18400
N234        N  0.88322132  0.84487218  0.07039228     0.76000
H235        H  0.91510402  0.94273150  0.07589993     0.09900
C236        C  0.02965989  0.05468339  0.08646971     0.03600
C237        C  0.03675593  0.10435853  0.08632433    -0.05100
C238        C  0.00103371  0.11431053  0.09336843    -0.23500
C239        C  0.95994467  0.07478475  0.10159284     0.12900
C240        C  0.95303458  0.02547453  0.10175708    -0.12600
N241        N  0.06425912  0.04463358  0.07815297     0.64600
H242        H  0.06819396  0.13420483  0.07989903     0.12400
N243        N  0.92482286  0.08419110  0.10986022     0.61200
H244        H  0.92050029  0.99512325  0.10770951     0.08600
O245        O  0.89594481  0.84499870  0.05674214    -0.40300
O246        O  0.83639449  0.82423454  0.07382119    -0.39400
O247        O  0.02115716  0.97615038  0.12585912    -0.39400
O248        O  0.08257576  0.98777534  0.11045743    -0.37100
O249        O  0.88136809  0.07069437  0.10427947    -0.38000
O250        O  0.93256818  0.09484743  0.12380251    -0.34200
O251        O  0.05562088  0.03236221  0.06432871    -0.35600
O252        O  0.10769162  0.05765882  0.08365466    -0.39900
C253        C  0.40671324  0.46670243  0.92024721    -0.13600
C254        C  0.44046977  0.46407181  0.93069577     0.16800
C255        C  0.42064394  0.42446978  0.94156876     0.01900
C256        C  0.36861184  0.38662586  0.94124621    -0.12100
C257        C  0.33499096  0.38783529  0.93040878    -0.03200
C258        C  0.35425502  0.42940894  0.92014057     0.02300
C259        C  0.49604822  0.50332295  0.93024767     0.09200
N260        N  0.45337653  0.42090405  0.95260070     0.65500
H261        H  0.35473065  0.35519385  0.94925136     0.18400
N262        N  0.32179222  0.43284465  0.90899604     0.76000
H263        H  0.42127095  0.49759344  0.91204626     0.09900
C264        C  0.52752822  0.50635422  0.91797611     0.03600
C265        C  0.57915491  0.54567651  0.91744354    -0.05100
C266        C  0.59998946  0.58292436  0.92890409    -0.23500
C267        C  0.56873543  0.57897001  0.94139581     0.12900
C268        C  0.51742651  0.53926482  0.94201115    -0.12600
N269        N  0.50729255  0.47013711  0.90585059     0.64600
H270        H  0.60226864  0.54846141  0.90770584     0.12400
N271        N  0.58855860  0.61524053  0.95353854     0.61200
H272        H  0.49381873  0.53726266  0.95152541     0.08600
O273        O  0.32275663  0.41930204  0.89551300    -0.40300
O274        O  0.29954138  0.45771979  0.91194532    -0.39400
O275        O  0.45309568  0.43481201  0.96608647    -0.39400
O276        O  0.47571161  0.39619382  0.94953803    -0.37100
O277        O  0.57718246  0.65006055  0.95433841    -0.38000
O278        O  0.60948499  0.60704697  0.96474057    -0.34200
O279        O  0.49580929  0.48264729  0.89342866    -0.35600
O280        O  0.50846036  0.42902785  0.90672068    -0.39900
C281        C  0.97759899  0.05116503  0.91304860    -0.13600
C282        C  0.98967885  0.01231517  0.91054543     0.16800
C283        C  0.04094096  0.02645919  0.90769456     0.03100
C284        C  0.07934530  0.07779592  0.90888585    -0.12100
C285        C  0.06806714  0.11621298  0.91288653    -0.03200
C286        C  0.01632449  0.10292193  0.91418387     0.02300
C287        C  0.94946374  0.95744107  0.91232636     0.09200
N288        N  0.05526589  0.98881742  0.90473140     0.65500
H289        H  0.11868475  0.08717593  0.90740216     0.18400
N290        N  0.00258179  0.14072002  0.91753692     0.76000
H291        H  0.93813402  0.04104102  0.91471146     0.09900
C292        C  0.92063055  0.94039717  0.92583481     0.03600
C293        C  0.88224115  0.88920680  0.92734620    -0.05100
C294        C  0.87201254  0.85361593  0.91571866    -0.23500
C295        C  0.90173934  0.86982584  0.90236950     0.12900
C296        C  0.94009736  0.92161427  0.90073024    -0.12600
N297        N  0.93028936  0.97457291  0.93825008     0.64600
H298        H  0.85980120  0.87720737  0.93768376     0.12400
N299        N  0.89112236  0.83520599  0.89003029     0.61200
H300        H  0.96155319  0.93411422  0.89024506     0.08600
O301        O  0.99039451  0.14516018  0.93091457    -0.40300
O302        O  0.99426193  0.16328805  0.90680853    -0.39400
O303        O  0.07031534  0.98558211  0.89163113    -0.39400
O304        O  0.06132076  0.96531468  0.91565030    -0.37100
O305        O  0.85713644  0.82818910  0.88045125    -0.38000
O306        O  0.92070076  0.81794361  0.88742238    -0.34200
O307        O  0.89728468  0.98661515  0.94186353    -0.35600
O308        O  0.96790056  0.98646134  0.94691311    -0.39900
C309        C  0.82678652  0.68106079  0.98385308    -0.13600
C310        C  0.83438448  0.71920463  0.99427995     0.16800
C311        C  0.81961507  0.75515024  0.99027095     0.03100
C312        C  0.79696558  0.75198261  0.97605675    -0.12100
C313        C  0.78921490  0.71361256  0.96557154    -0.03200
C314        C  0.80456646  0.67786642  0.96967861     0.02300
C315        C  0.85636573  0.71939101  0.00940365     0.09200
N316        N  0.82671875  0.79461909  0.00060520     0.65500
H317        H  0.78627463  0.78014850  0.97313555     0.18400
N318        N  0.79757464  0.63757485  0.95967229     0.76000
H319        H  0.83824469  0.65343061  0.98674494     0.09900
C320        C  0.83128431  0.67651733  0.01906362     0.03600
C321        C  0.85270434  0.67650380  0.03310320    -0.05100
C322        C  0.89929110  0.71862087  0.03793127    -0.23500
C323        C  0.92575514  0.76067464  0.02799938     0.12900
C324        C  0.90393917  0.76095873  0.01388918    -0.12600
N325        N  0.78285628  0.63335728  0.01502180     0.64600
H326        H  0.83181804  0.64370629  0.04049649     0.12400
N327        N  0.97382410  0.80384361  0.03222322     0.61200
H328        H  0.92430462  0.79347844  0.00638291     0.08600
O329        O  0.75752692  0.59415625  0.96070734    -0.40300
O330        O  0.83502417  0.64237736  0.95198695    -0.39400
O331        O  0.86358807  0.83968275  0.99871168    -0.39400
O332        O  0.79218391  0.78623831  0.01014622    -0.37100
O333        O  0.01471174  0.80357521  0.02951610    -0.38000
O334        O  0.97603039  0.84503733  0.03620281    -0.34200
O335        O  0.77969344  0.59097565  0.01204809    -0.35600
O336        O  0.74244452  0.63531688  0.01685081    -0.39900
C337        C  0.73926111  0.72981167  0.81890506    -0.13600
C338        C  0.69618213  0.71964503  0.82766615     0.16800
C339        C  0.65132111  0.71117478  0.82031680     0.03100
C340        C  0.65063164  0.71511370  0.80451375    -0.12100
C341        C  0.69381058  0.72615975  0.79567158    -0.03200
C342        C  0.73825218  0.73265020  0.80298422     0.02300
C343        C  0.69831948  0.71792063  0.84447358     0.09200
N344        N  0.60572142  0.69718541  0.82877044     0.65500
H345        H  0.61595985  0.70939184  0.79910301     0.18400
N346        N  0.78330402  0.74457468  0.79452003     0.76000
H347        H  0.77396355  0.73628663  0.82446433     0.09900
C348        C  0.70422876  0.67981153  0.85170153     0.03600
C349        C  0.70699294  0.67907669  0.86749678    -0.05100
C350        C  0.70532577  0.71673251  0.87652443    -0.23500
C351        C  0.69918678  0.75504932  0.86928531     0.12900
C352        C  0.69498078  0.75488652  0.85335454    -0.12600
N353        N  0.70762128  0.64150336  0.84311195     0.64600
H354        H  0.71143283  0.64906088  0.87269341     0.12400
N355        N  0.70097127  0.79630015  0.87773923     0.61200
H356        H  0.69109276  0.78479566  0.84785495     0.08600
O357        O  0.79053697  0.70883911  0.79024850    -0.40300
O358        O  0.81952337  0.79039899  0.79365070    -0.39400
O359        O  0.58905313  0.72790422  0.82974278    -0.39400
O360        O  0.57899852  0.65202631  0.83374695    -0.37100
O361        O  0.74372235  0.83332686  0.88182396    -0.38000
O362        O  0.66129547  0.79996132  0.87887229    -0.34200
O363        O  0.75042704  0.64417915  0.84152889    -0.35600
O364        O  0.66720812  0.60124362  0.83921319    -0.39900
C365        C  0.64322738  0.86159695  0.65542984    -0.13600
C366        C  0.68971075  0.87753399  0.66303213     0.16800
C367        C  0.73572656  0.91505900  0.65610976     0.03100
C368        C  0.73449419  0.93596248  0.64192232    -0.12100
C369        C  0.68795110  0.91943727  0.63429455    -0.03200
C370        C  0.64201100  0.88195768  0.64123928     0.02300
C371        C  0.68894763  0.85383400  0.67802551     0.09200
N372        N  0.78407661  0.93185575  0.66324540     0.65500
H373        H  0.77015077  0.96345297  0.63656501     0.18400
N374        N  0.59364472  0.86370176  0.63390816     0.76000
H375        H  0.60765577  0.83230215  0.66038434     0.09900
C376        C  0.65835861  0.85415711  0.69006344     0.03600
C377        C  0.65661662  0.83025353  0.70385506    -0.05100
C378        C  0.68500606  0.80543820  0.70620657    -0.23500
C379        C  0.71430928  0.80352836  0.69395091     0.12900
C380        C  0.71622083  0.82779928  0.68008123    -0.12600
N381        N  0.62983676  0.88001667  0.68863633     0.64600
H382        H  0.63351615  0.83230299  0.71290335     0.12400
N383        N  0.74209426  0.77696247  0.69529787     0.61200
H384        H  0.73839302  0.82550636  0.67080032     0.08600
O385        O  0.56758794  0.88482737  0.63667982    -0.40300
O386        O  0.57327579  0.82160741  0.62686356    -0.39400
O387        O  0.81406991  0.91803499  0.65795970    -0.39400
O388        O  0.79999020  0.96651007  0.67320962    -0.37100
O389        O  0.71982778  0.72950555  0.69257622    -0.38000
O390        O  0.79018046  0.80199324  0.69676613    -0.34200
O391        O  0.58148706  0.85455608  0.68879996    -0.35600
O392        O  0.65263981  0.92826117  0.68954900    -0.39900
C393        C  0.20368607  0.26717546  0.82150592    -0.13600
C394        C  0.24375105  0.26649404  0.82941906     0.16800
C395        C  0.28126028  0.26212304  0.82125177     0.03100
C396        C  0.27758130  0.25690312  0.80546580    -0.12100
C397        C  0.23645668  0.25537811  0.79746149    -0.03200
C398        C  0.19949939  0.26124310  0.80563826     0.02300
C399        C  0.24388156  0.26656747  0.84624809     0.09200
N400        N  0.32310936  0.26240598  0.82889780     0.65500
H401        H  0.30672084  0.25302098  0.79947228     0.18400
N402        N  0.15540991  0.25697443  0.79824683     0.76000
H403        H  0.17426097  0.26984165  0.82774790     0.09900
C404        C  0.25302645  0.31024528  0.85446294     0.03600
C405        C  0.24817898  0.30777185  0.87028041    -0.05100
C406        C  0.23450245  0.26219275  0.87819464    -0.23500
C407        C  0.22660802  0.21870272  0.87001038     0.12900
C408        C  0.23176683  0.22133141  0.85413299    -0.12600
N409        N  0.26703113  0.35731999  0.84685889     0.64600
H410        H  0.25407822  0.34136601  0.87638734     0.12400
N411        N  0.20805157  0.17039040  0.87742309     0.61200
H412        H  0.22380687  0.18729627  0.84787274     0.08600
O413        O  0.15076808  0.29603812  0.79687366    -0.40300
O414        O  0.11763095  0.21316587  0.79543525    -0.39400
O415        O  0.32277528  0.22088746  0.83097850    -0.39400
O416        O  0.36315651  0.30448645  0.83172876    -0.37100
O417        O  0.16102577  0.14349662  0.88060353    -0.38000
O418        O  0.23645616  0.15103588  0.87848200    -0.34200
O419        O  0.23433280  0.37123590  0.84519023    -0.35600
O420        O  0.31360085  0.38848401  0.84402761    -0.39900
C421        C  0.89296457  0.95672454  0.77217564    -0.13600
C422        C  0.92942889  0.96822072  0.76061477     0.16800
C423        C  0.91316572  0.94235287  0.74661046     0.03100
C424        C  0.86201465  0.90447723  0.74461472    -0.12100
C425        C  0.82581620  0.89237224  0.75619894    -0.03200
C426        C  0.84124292  0.91949684  0.76998698     0.02300
C427        C  0.98406970  0.00773510  0.76305688     0.09200
N428        N  0.94801754  0.95450065  0.73420924     0.65500
H429        H  0.85053807  0.88387404  0.73396678     0.18400
N430        N  0.80564655  0.90762266  0.78214304     0.76000
H431        H  0.90481779  0.97583214  0.78302232     0.09900
C432        C  0.99788924  0.05774318  0.76758268     0.03600
C433        C  0.04931448  0.09616576  0.76747589    -0.05100
C434        C  0.08789235  0.08631090  0.76261490    -0.23500
C435        C  0.07485902  0.03534350  0.75962269     0.12900
C436        C  0.02308547  0.99642538  0.75989473    -0.12600
N437        N  0.95999645  0.07138126  0.77097085     0.64600
H438        H  0.05866814  0.13483758  0.77023003     0.12400
N439        N  0.11297269  0.02298494  0.75532932     0.61200
H440        H  0.01316447  0.95772199  0.75701051     0.08600
O441        O  0.78679846  0.93597063  0.78451346    -0.40300
O442        O  0.80001009  0.87473156  0.79195970    -0.39400
O443        O  0.95939026  0.92183393  0.72966867    -0.39400
O444        O  0.96062364  0.99401788  0.72632039    -0.37100
O445        O  0.13366144  0.00954960  0.76536746    -0.38000
O446        O  0.11952552  0.01711192  0.74149207    -0.34200
O447        O  0.95557558  0.08344569  0.78436528    -0.35600
O448        O  0.93752741  0.07994983  0.76027566    -0.39900
C449        C  0.46984679  0.55075769  0.75076602    -0.13600
C450        C  0.47792483  0.51305652  0.74417606     0.16800
C451        C  0.52577000  0.52757026  0.73763805     0.03100
C452        C  0.56527034  0.57865563  0.73834727    -0.12100
C453        C  0.55822234  0.61669373  0.74530943    -0.03200
C454        C  0.50938586  0.60233356  0.75133094     0.02300
C455        C  0.43614069  0.45870268  0.74414869     0.09200
N456        N  0.53440702  0.49107146  0.72984314     0.65500
H457        H  0.60179466  0.58845417  0.73331775     0.18400
N458        N  0.49950413  0.63910174  0.75835712     0.76000
H459        H  0.43287187  0.53995051  0.75566173     0.09900
C460        C  0.43831031  0.42148332  0.75331355     0.03600
C461        C  0.39808145  0.37031287  0.75292815    -0.05100
C462        C  0.35480607  0.35568762  0.74378451    -0.23500
C463        C  0.35362431  0.39297243  0.73428824     0.12900
C464        C  0.39406326  0.44385191  0.73456732    -0.12600
N465        N  0.47937634  0.43576996  0.76382253     0.64600
H466        H  0.39925134  0.34273037  0.76052425     0.12400
N467        N  0.31169745  0.37976753  0.72421222     0.61200
H468        H  0.39257194  0.47197207  0.72728445     0.08600
O469        O  0.50021361  0.64254078  0.77263906    -0.40300
O470        O  0.48126206  0.66121658  0.75055366    -0.39400
O471        O  0.51680743  0.47715964  0.71661865    -0.39400
O472        O  0.56744643  0.48085379  0.73480154    -0.37100
O473        O  0.31213778  0.36301291  0.71112908    -0.38000
O474        O  0.27950694  0.39341725  0.72729014    -0.34200
O475        O  0.48115643  0.45976756  0.77574389    -0.35600
O476        O  0.50793604  0.41662481  0.76262285    -0.39900
C477        C  0.01991239  0.04200499  0.58540947    -0.13600
C478        C  0.98356439  0.99267504  0.58016276     0.16800
C479        C  0.00133112  0.96180085  0.57372092     0.03100
C480        C  0.05378507  0.97848841  0.57379306    -0.12100
C481        C  0.08979094  0.02592476  0.58014464    -0.03200
C482        C  0.07271507  0.05884961  0.58539714     0.02300
C483        C  0.92751246  0.97347460  0.58193006     0.09200
N484        N  0.96639380  0.91179070  0.56801988     0.65500
H485        H  0.06618087  0.95293270  0.56951062     0.18400
N486        N  0.10785587  0.10784747  0.59167409     0.76000
H487        H  0.00714042  0.06696646  0.58991565     0.09900
C488        C  0.90653111  0.97353031  0.59624808     0.03600
C489        C  0.85486015  0.95959038  0.59750554    -0.05100
C490        C  0.82272674  0.94437143  0.58476170    -0.23500
C491        C  0.84278968  0.94195503  0.57053629     0.12900
C492        C  0.89482963  0.95642400  0.56921217    -0.12600
N493        N  0.93742033  0.98820163  0.60963733     0.64600
H494        H  0.84014538  0.96246917  0.60843621     0.12400
N495        N  0.81197693  0.92902998  0.55716222     0.61200
H496        H  0.91021778  0.95659118  0.55812120     0.08600
O497        O  0.11400047  0.11284658  0.60586401    -0.40300
O498        O  0.12608326  0.14721789  0.58335400    -0.39400
O499        O  0.96502714  0.90312849  0.55396633    -0.39400
O500        O  0.94390404  0.87471003  0.57713792    -0.37100
O501        O  0.80968516  0.96373225  0.54982926    -0.38000
O502        O  0.79428391  0.88513360  0.55135392    -0.34200
O503        O  0.94762927  0.02897812  0.61647469    -0.35600
O504        O  0.94769697  0.95679577  0.61586174    -0.39900
C505        C  0.47785685  0.95575322  0.59092515    -0.13600
C506        C  0.49142104  0.00772483  0.59070694     0.16800
C507        C  0.54383077  0.04537705  0.59041547     0.03100
C508        C  0.58116107  0.03072529  0.59020160    -0.12100
C509        C  0.56803051  0.97873660  0.59058669    -0.03200
C510        C  0.51540884  0.94104705  0.59086004     0.02300
C511        C  0.45051915  0.02189426  0.59123612     0.09200
N512        N  0.55998325  0.09876684  0.59114747     0.65500
H513        H  0.62100348  0.06076364  0.59002118     0.18400
N514        N  0.49928198  0.88776442  0.59138099     0.76000
H515        H  0.43776224  0.92634847  0.59122093     0.09900
C516        C  0.44376082  0.04994869  0.57946897     0.03600
C517        C  0.40468862  0.06239870  0.58056613    -0.05100
C518        C  0.37059646  0.04559529  0.59291653    -0.23500
C519        C  0.37813761  0.01848751  0.60476110     0.12900
C520        C  0.41786094  0.00722551  0.60388073    -0.12600
N521        N  0.47313316  0.06207962  0.56576584     0.64600
H522        H  0.39836349  0.08158792  0.57114670     0.12400
N523        N  0.34549972  0.00194277  0.61779467     0.61200
H524        H  0.42293053  0.98641149  0.61308303     0.08600
O525        O  0.48347943  0.86119932  0.57944915    -0.40300
O526        O  0.49286274  0.86580739  0.60405169    -0.39400
O527        O  0.55317792  0.11703059  0.60322228    -0.39400
O528        O  0.58906139  0.12886587  0.58098233    -0.37100
O529        O  0.31179355  0.95527130  0.61921972    -0.38000
O530        O  0.35626600  0.03176766  0.62896819    -0.34200
O531        O  0.46987307  0.02630890  0.55755573    -0.35600
O532        O  0.49474245  0.10716065  0.56055681    -0.39900
C533        C  0.23770301  0.14843907  0.65127122    -0.13600
C534        C  0.21439396  0.11077163  0.66245974     0.16800
C535        C  0.19583448  0.05908830  0.65860036     0.03100
C536        C  0.20143208  0.04596838  0.64368544    -0.12100
C537        C  0.22512026  0.08373711  0.63234838    -0.03200
C538        C  0.24296338  0.13564786  0.63636292     0.02300
C539        C  0.21295194  0.12714347  0.67824785     0.09200
N540        N  0.17041663  0.01945221  0.66964612     0.65500
H541        H  0.18682699  0.00603308  0.64098284     0.18400
N542        N  0.26601469  0.17616859  0.62546664     0.76000
H543        H  0.25217767  0.18825190  0.65415820     0.09900
C544        C  0.25221971  0.13614240  0.68850846     0.03600
C545        C  0.25279691  0.15539379  0.70298994    -0.05100
C546        C  0.21493496  0.16673270  0.70761303    -0.23500
C547        C  0.17546344  0.15770989  0.69726710     0.12900
C548        C  0.17486081  0.13814439  0.68270636    -0.12600
N549        N  0.29292531  0.12764982  0.68415105     0.64600
H550        H  0.28381385  0.16223596  0.71060161     0.12400
N551        N  0.13509155  0.16685514  0.70146460     0.61200
H552        H  0.14468617  0.13176110  0.67480756     0.08600
O553        O  0.31412504  0.20457096  0.62514417    -0.40300
O554        O  0.23840276  0.18955668  0.61834139    -0.39400
O555        O  0.12246855  0.99833114  0.67119825    -0.39400
O556        O  0.19395177  0.99942595  0.67573476    -0.37100
O557        O  0.09387771  0.13068498  0.70680230    -0.38000
O558        O  0.13731356  0.20815168  0.69756782    -0.34200
O559        O  0.33312022  0.16378799  0.67832181    -0.35600
O560        O  0.29240447  0.08752946  0.68845854    -0.39900
C561        C  0.72011955  0.00886277  0.51742784    -0.13600
C562        C  0.68391345  0.96362030  0.51003961     0.16800
C563        C  0.65144002  0.92028974  0.51872067     0.03100
C564        C  0.65473448  0.92271719  0.53448974    -0.12100
C565        C  0.69081781  0.96770366  0.54209768    -0.03200
C566        C  0.72412998  0.01112140  0.53335359     0.02300
C567        C  0.68058769  0.96175967  0.49326688     0.09200
N568        N  0.61424337  0.87355004  0.51167437     0.65500
H569        H  0.62846770  0.88865030  0.54076881     0.18400
N570        N  0.76337213  0.05683850  0.54032736     0.76000
H571        H  0.74604585  0.04211686  0.51078878     0.09900
C572        C  0.66851304  0.99460321  0.48527276     0.03600
C573        C  0.66904934  0.99480074  0.46943157    -0.05100
C574        C  0.68101107  0.96223852  0.46130403    -0.23500
C575        C  0.69099649  0.92769612  0.46923602     0.12900
C576        C  0.69064643  0.92763880  0.48516519    -0.12600
N577        N  0.65591883  0.02819509  0.49312472     0.64600
H578        H  0.66148791  0.02158867  0.46342645     0.12400
N579        N  0.70625979  0.89614777  0.46136130     0.61200
H580        H  0.70047892  0.90259672  0.49121503     0.08600
O581        O  0.75874496  0.09606030  0.54093487    -0.40300
O582        O  0.80615029  0.06090045  0.54326935    -0.39400
O583        O  0.62151301  0.83591076  0.51125738    -0.39400
O584        O  0.57088741  0.86717957  0.50821168    -0.37100
O585        O  0.75216356  0.91485062  0.45709461    -0.38000
O586        O  0.67613506  0.84834312  0.46067524    -0.34200
O587        O  0.68735206  0.07578969  0.49329374    -0.35600
O588        O  0.61094292  0.01130502  0.49800912    -0.39900
C589        C  0.81085722  0.07626231  0.31678130    -0.13600
C590        C  0.83901829  0.10345111  0.32950916     0.16800
C591        C  0.88631188  0.14942220  0.32748700     0.03100
C592        C  0.90329890  0.16824943  0.31276332    -0.12100
C593        C  0.87449822  0.14131719  0.30001671    -0.03200
C594        C  0.82831056  0.09424703  0.30215583     0.02300
C595        C  0.81662676  0.08353796  0.34467455     0.09200
N596        N  0.91815879  0.17637404  0.34017777     0.65500
H597        H  0.93914644  0.20383434  0.31128803     0.18400
N598        N  0.79951873  0.06307494  0.28959322     0.76000
H599        H  0.77489212  0.04070812  0.31821042     0.09900
C600        C  0.80469647  0.11245994  0.35466983     0.03600
C601        C  0.78218542  0.09168471  0.36869942    -0.05100
C602        C  0.76944551  0.04167768  0.37284780    -0.23500
C603        C  0.78021020  0.01227691  0.36269196     0.12900
C604        C  0.80390985  0.03347887  0.34876404    -0.12600
N605        N  0.81258676  0.16174219  0.35043710     0.64600
H606        H  0.77339786  0.11445849  0.37627099     0.12400
N607        N  0.76923868  0.96178192  0.36656913     0.61200
H608        H  0.81256203  0.01082684  0.34109981     0.08600
O609        O  0.75658559  0.05831109  0.28643091    -0.40300
O610        O  0.81231333  0.03323801  0.28358340    -0.39400
O611        O  0.93414166  0.15404777  0.34880941    -0.39400
O612        O  0.93685435  0.22420367  0.34134340    -0.37100
O613        O  0.72926179  0.92342542  0.36148628    -0.38000
O614        O  0.80313488  0.95552986  0.37292494    -0.34200
O615        O  0.78896356  0.16563263  0.33916874    -0.35600
O616        O  0.83572864  0.19927918  0.35935111    -0.39900
C617        C  0.91948049  0.21315242  0.15431909    -0.13600
C618        C  0.96235117  0.24683684  0.16306563     0.16800
C619        C  0.00804874  0.28186122  0.15570124     0.03100
C620        C  0.01068663  0.28215976  0.13992195    -0.12100
C621        C  0.96835240  0.24800775  0.13103837    -0.03200
C622        C  0.92187067  0.21388931  0.13840083     0.02300
C623        C  0.95969118  0.24364059  0.17984254     0.09200
N624        N  0.05230657  0.31748880  0.16410272     0.65500
H625        H  0.04661647  0.30935614  0.13463708     0.18400
N626        N  0.87722722  0.17908033  0.13001866     0.76000
H627        H  0.88431038  0.18554935  0.15986100     0.09900
C628        C  0.92089658  0.24649343  0.18784357     0.03600
C629        C  0.91749426  0.24016442  0.20355120    -0.05100
C630        C  0.95265461  0.23168698  0.21161325    -0.23500
C631        C  0.99216928  0.22984040  0.20372254     0.12900
C632        C  0.99526119  0.23555618  0.18790555    -0.12600
N633        N  0.88468818  0.25590709  0.18019534     0.64600
H634        H  0.88675946  0.24133848  0.20946253     0.12400
N635        N  0.02662778  0.21799540  0.21139400     0.61200
H636        H  0.02426900  0.23173745  0.18186026     0.08600
O637        O  0.84644708  0.19325576  0.12571896    -0.40300
O638        O  0.86305207  0.13199915  0.12987047    -0.39400
O639        O  0.09179341  0.31324646  0.16410895    -0.39400
O640        O  0.05459037  0.35719145  0.16957451    -0.37100
O641        O  0.01256344  0.17202063  0.21461652    -0.38000
O642        O  0.07292014  0.25227485  0.21311680    -0.34200
O643        O  0.83805479  0.22136959  0.17981474    -0.35600
O644        O  0.89756030  0.30098051  0.17621934    -0.39900
C645        C  0.23527743  0.03129800  0.48373584    -0.13600
C646        C  0.23689642  0.99488584  0.49336891     0.16800
C647        C  0.23313480  0.95049561  0.48689029     0.03100
C648        C  0.22531671  0.94191463  0.47128814    -0.12100
C649        C  0.22223964  0.97738522  0.46162024    -0.03200
C650        C  0.22903608  0.02343381  0.46794494     0.02300
C651        C  0.23858888  0.00148698  0.51018411     0.09200
N652        N  0.23761089  0.91375792  0.49601465     0.65500
H653        H  0.22171519  0.90699879  0.46673604     0.18400
N654        N  0.22852721  0.06199875  0.45864409     0.76000
H655        H  0.23775463  0.06543415  0.48849692     0.09900
C656        C  0.27608088  0.04677112  0.51729741     0.03600
C657        C  0.27477271  0.05219048  0.53306412    -0.05100
C658        C  0.23687237  0.01293086  0.54212445    -0.23500
C659        C  0.19965880  0.96741837  0.53502886     0.12900
C660        C  0.20060309  0.96224740  0.51921867    -0.12600
N661        N  0.31636221  0.08726663  0.50872852     0.64600
H662        H  0.30390282  0.08733966  0.53825265     0.12400
N663        N  0.15883952  0.92735627  0.54353966     0.61200
H664        H  0.17060821  0.92789925  0.51393258     0.08600
O665        O  0.26923146  0.09462987  0.45210152    -0.40300
O666        O  0.19126408  0.06973696  0.45944370    -0.39400
O667        O  0.19980316  0.86893928  0.49739157    -0.39400
O668        O  0.28124175  0.92337138  0.50049581    -0.37100
O669        O  0.11839133  0.92882917  0.54589577    -0.38000
O670        O  0.15958449  0.88675826  0.54635510    -0.34200
O671        O  0.31820699  0.12982349  0.50754021    -0.35600
O672        O  0.35445522  0.08356786  0.50469240    -0.39900
C673        C  0.39691307  0.93207884  0.41240130    -0.13600
C674        C  0.43599986  0.98365135  0.41155356     0.16800
C675        C  0.42266291  0.02207569  0.41100602     0.03100
C676        C  0.37096646  0.00848161  0.41148270    -0.12100
C677        C  0.33144956  0.95682014  0.41233115    -0.03200
C678        C  0.34506087  0.91837215  0.41280190     0.02300
C679        C  0.49025939  0.99610715  0.41107376     0.09200
N680        N  0.46098243  0.07493929  0.40939049     0.65500
H681        H  0.36186768  0.03885563  0.41110393     0.18400
N682        N  0.30693763  0.86525599  0.41340458     0.76000
H683        H  0.40677748  0.90222638  0.41275398     0.09900
C684        C  0.52467424  0.02183368  0.42310805     0.03600
C685        C  0.57454008  0.02936929  0.42262055    -0.05100
C686        C  0.59028339  0.01043912  0.41048553    -0.23500
C687        C  0.55663127  0.98701835  0.39815133     0.12900
C688        C  0.50712529  0.97999534  0.39854523    -0.12600
N689        N  0.50826809  0.03656625  0.43644435     0.64600
H690        H  0.59956777  0.04645281  0.43229138     0.12400
N691        N  0.57238055  0.97035718  0.38510194     0.61200
H692        H  0.48140751  0.96115489  0.38912366     0.08600
O693        O  0.29768990  0.84134452  0.42582773    -0.40300
O694        O  0.28964266  0.84051798  0.40121649    -0.39400
O695        O  0.48319296  0.09106658  0.39677088    -0.39400
O696        O  0.46498142  0.10679380  0.41934378    -0.37100
O697        O  0.55356649  0.92305792  0.38265032    -0.38000
O698        O  0.59774480  0.00220618  0.37479060    -0.34200
O699        O  0.47632330  0.00245409  0.44526914    -0.35600
O700        O  0.53218064  0.08266370  0.44077325    -0.39900
C701        C  0.98685939  0.93811645  0.43734691    -0.13600
C702        C  0.95839820  0.93278276  0.42421974     0.16800
C703        C  0.97072452  0.91710442  0.41056597     0.03100
C704        C  0.01239637  0.90888596  0.41010420    -0.12100
C705        C  0.04210042  0.91614621  0.42308343    -0.03200
C706        C  0.02855811  0.92986614  0.43686361     0.02300
C707        C  0.91713772  0.94550458  0.42473669     0.09200
N708        N  0.94366212  0.91310129  0.39684931     0.65500
H709        H  0.02345099  0.89979128  0.39937591     0.18400
N710        N  0.05864179  0.93848111  0.45021189     0.76000
H711        H  0.97746949  0.94997472  0.44787665     0.09900
C712        C  0.86537733  0.90676856  0.42462902     0.03600
C713        C  0.82720852  0.91986304  0.42371962    -0.05100
C714        C  0.83945057  0.97147452  0.42308404    -0.23500
C715        C  0.89152064  0.01036543  0.42391411     0.12900
C716        C  0.92983845  0.99706838  0.42462985    -0.12600
N717        N  0.85098768  0.85392808  0.42563665     0.64600
H718        H  0.78765383  0.88916622  0.42349803     0.12400
N719        N  0.90633058  0.06335509  0.42359227     0.61200
H720        H  0.96970061  0.02707010  0.42480042     0.08600
O721        O  0.04794757  0.90165154  0.45910927    -0.40300
O722        O  0.08907246  0.98376073  0.45448418    -0.39400
O723        O  0.95361263  0.95322837  0.38964590    -0.39400
O724        O  0.91696338  0.86993640  0.39062614    -0.37100
O725        O  0.91265970  0.08715587  0.43590391    -0.38000
O726        O  0.92123562  0.08807968  0.41130105    -0.34200
O727        O  0.84815057  0.83425293  0.43850227    -0.35600
O728        O  0.83162356  0.82512715  0.41426132    -0.39900
C729        C  0.94222727  0.50523482  0.27401133    -0.13600
C730        C  0.96555980  0.48893830  0.26343363     0.16800
C731        C  0.99988753  0.52416493  0.25269150     0.03100
C732        C  0.00925566  0.57466590  0.25241326    -0.12100
C733        C  0.98404221  0.59039017  0.26257312    -0.03200
C734        C  0.95091970  0.55531410  0.27363248     0.02300
C735        C  0.95116200  0.43426032  0.26330237     0.09200
N736        N  0.02475748  0.50887625  0.24184116     0.65500
H737        H  0.03436678  0.60082657  0.24379451     0.18400
N738        N  0.92529216  0.56977723  0.28447752     0.76000
H739        H  0.91595254  0.47849026  0.28232331     0.09900
C740        C  0.96532077  0.41290361  0.27522820     0.03600
C741        C  0.95119458  0.36109216  0.27474616    -0.05100
C742        C  0.92224996  0.32959433  0.26261229    -0.23500
C743        C  0.90608560  0.35046705  0.25102884     0.12900
C744        C  0.92083197  0.40257842  0.25141600    -0.12600
N745        N  0.99600275  0.44393358  0.28754750     0.64600
H746        H  0.96439933  0.34578671  0.28363699     0.12400
N747        N  0.87805571  0.32032960  0.23824886     0.61200
H748        H  0.90907686  0.41852571  0.24233090     0.08600
O749        O  0.94688478  0.58939760  0.29692972    -0.40300
O750        O  0.87828005  0.55461099  0.28281794    -0.39400
O751        O  0.00742648  0.49766391  0.22850148    -0.39400
O752        O  0.06834438  0.51496127  0.24480280    -0.37100
O753        O  0.90158175  0.32287549  0.22614836    -0.38000
O754        O  0.82984395  0.29918572  0.23811309    -0.34200
O755        O  0.97532553  0.44154879  0.30020190    -0.35600
O756        O  0.04421631  0.46670253  0.28655948    -0.39900
C757        C  0.01210848  0.94914792  0.24513993    -0.13600
C758        C  0.96181484  0.94066275  0.24568154     0.16800
C759        C  0.92041195  0.89003071  0.24608614     0.03100
C760        C  0.92967617  0.84930701  0.24680043    -0.12100
C761        C  0.97988000  0.85755590  0.24749076    -0.03200
C762        C  0.02146306  0.90812842  0.24612004     0.02300
C763        C  0.95288579  0.98460256  0.24681932     0.09200
N764        N  0.86863114  0.87928707  0.24687649     0.65500
H765        H  0.89691868  0.81094470  0.24747849     0.18400
N766        N  0.07321751  0.91880178  0.24631186     0.76000
H767        H  0.04424672  0.98782006  0.24438125     0.09900
C768        C  0.97639714  0.02133711  0.25839126     0.03600
C769        C  0.96582104  0.06104720  0.25974985    -0.05100
C770        C  0.93161624  0.06514630  0.24985194    -0.23500
C771        C  0.90800449  0.02863600  0.23823091     0.12900
C772        C  0.91900079  0.98884946  0.23674057    -0.12600
N773        N  0.00990485  0.01799313  0.26920113     0.64600
H774        H  0.98412269  0.08860821  0.26879807     0.12400
N775        N  0.87502113  0.03287113  0.22744227     0.61200
H776        H  0.90145200  0.96151929  0.22761706     0.08600
O777        O  0.09894812  0.93408539  0.25840623    -0.40300
O778        O  0.09560411  0.92147747  0.23395918    -0.39400
O779        O  0.83860277  0.85728555  0.23590690    -0.39400
O780        O  0.85096933  0.88445524  0.25931021    -0.37100
O781        O  0.89406373  0.06174209  0.21604002    -0.38000
O782        O  0.82734017  0.00208514  0.22802174    -0.34200
O783        O  0.05705450  0.05107445  0.26906976    -0.35600
O784        O  0.99128295  0.98773717  0.28032762    -0.39900
C785        C  0.10957264  0.80937336  0.35398614    -0.13600
C786        C  0.09899390  0.83846610  0.34379732     0.16800
C787        C  0.10930301  0.88761500  0.34816765     0.03100
C788        C  0.12947091  0.90673479  0.36263165    -0.12100
C789        C  0.13946358  0.87739458  0.37302138    -0.03200
C790        C  0.12941913  0.82812646  0.36846781     0.02300
C791        C  0.07721261  0.81670840  0.32866012     0.09200
N792        N  0.10009039  0.91880509  0.33793339     0.65500
H793        H  0.13653827  0.94434898  0.36580366     0.18400
N794        N  0.13951032  0.79660592  0.37831723     0.76000
H795        H  0.10200920  0.77165608  0.35070940     0.09900
C796        C  0.10705075  0.81023177  0.31761091     0.03600
C797        C  0.08573981  0.78899832  0.30349624    -0.05100
C798        C  0.03430071  0.77312748  0.30002646    -0.23500
C799        C  0.00384679  0.77802552  0.31134986     0.12900
C800        C  0.02562766  0.80022606  0.32545570    -0.12600
N801        N  0.15957844  0.82618273  0.32044842     0.64600
H802        H  0.11001952  0.78537624  0.29515145     0.12400
N803        N  0.95108463  0.76130734  0.30870276     0.61200
H804        H  0.00208418  0.80415440  0.33399556     0.08600
O805        O  0.18224148  0.79868259  0.37761480    -0.40300
O806        O  0.10303441  0.76042094  0.38549270    -0.39400
O807        O  0.06134125  0.92370163  0.33975398    -0.39400
O808        O  0.13407464  0.94678452  0.32843437    -0.37100
O809        O  0.91731674  0.71603372  0.31209442    -0.38000
O810        O  0.93783923  0.79368849  0.30544953    -0.34200
O811        O  0.17199103  0.79320004  0.32373945    -0.35600
O812        O  0.19398891  0.87128332  0.31715152    -0.39900
C813        C  0.91524467  0.69463698  0.18635966    -0.13600
C814        C  0.95263744  0.69043642  0.17797542     0.16800
C815        C  0.99052106  0.68553333  0.18577172     0.03100
C816        C  0.99205465  0.68716147  0.20163167    -0.12100
C817        C  0.95621198  0.69364136  0.21009462    -0.03200
C818        C  0.91684934  0.69647285  0.20232626     0.02300
C819        C  0.95356604  0.69429289  0.16114276     0.09200
N820        N  0.02792104  0.67909475  0.17769400     0.65500
H821        H  0.02226786  0.68442163  0.20736596     0.18400
N822        N  0.88115290  0.70574988  0.21033282     0.76000
H823        H  0.88621787  0.69895634  0.18047268     0.09900
C824        C  0.91272948  0.65762822  0.15235254     0.03600
C825        C  0.91299429  0.66379684  0.13661294    -0.05100
C826        C  0.95358607  0.70626262  0.12924256    -0.23500
C827        C  0.99508090  0.74265908  0.13801028     0.12900
C828        C  0.99485016  0.73631105  0.15384345    -0.12600
N829        N  0.87096980  0.61347788  0.15925413     0.64600
H830        H  0.88101015  0.63506168  0.13010797     0.12400
N831        N  0.03559530  0.78805489  0.13122858     0.61200
H832        H  0.02608704  0.76521341  0.16052748     0.08600
O833        O  0.83510477  0.67034200  0.21161936    -0.40300
O834        O  0.89347473  0.75102778  0.21387707    -0.39400
O835        O  0.07362050  0.71563367  0.17697287    -0.39400
O836        O  0.01717337  0.63496318  0.17335570    -0.37100
O837        O  0.02974865  0.82608021  0.12898208    -0.38000
O838        O  0.07961757  0.79334439  0.12997983    -0.34200
O839        O  0.82770488  0.61010088  0.16027630    -0.35600
O840        O  0.87519025  0.57481767  0.16212302    -0.39900
loop_ 
_geom_bond_atom_site_label_1 
_geom_bond_atom_site_label_2 
_geom_bond_distance 
_geom_bond_site_symmetry_2 
_ccdc_geom_bond_type 
O1           Cu9   1.980       .  S
O1           C11   1.273       .  A
O2           Cu9   1.962       .  S
O2           C12   1.273       .  A
O3           Cu9   2.054       .  S
O3           C13   1.284       .  A
O4           Cu9   2.052       .  S
O4           C14   1.284   1_655  A
O5          Cu10   1.984       .  S
O5           C14   1.275       .  A
O6          Cu10   1.974       .  S
O6           C13   1.273   1_455  A
O7          Cu10   2.044       .  S
O7           C12   1.282   1_455  A
O8          Cu10   2.040       .  S
O8           C11   1.282   1_455  A
Cu9         Cu10   2.367   1_655  S
C11         C733   1.480       .  S
C12         C761   1.485       .  S
C13         C817   1.484       .  S
C14         C798   1.494       .  S
O15         Cu23   2.000       .  S
O15          C25   1.276       .  A
O16         Cu23   1.988       .  S
O16          C26   1.276       .  A
O17         Cu23   2.036       .  S
O17          C27   1.280       .  A
O18         Cu23   2.034       .  S
O18          C28   1.281       .  A
O19         Cu24   1.994       .  S
O19          C28   1.276       .  A
O20         Cu24   1.987       .  S
O20          C27   1.274       .  A
O21         Cu24   2.039       .  S
O21          C26   1.281       .  A
O22         Cu24   2.041       .  S
O22          C25   1.283       .  A
Cu23        Cu24   2.368       .  S
C25         C789   1.494       .  S
C26         C649   1.490       .  S
C27         C705   1.469       .  S
C28         C677   1.492       .  S
O29         Cu37   1.953       .  S
O29          C39   1.270       .  A
O30         Cu37   1.974       .  S
O30          C40   1.273       .  A
O31         Cu37   2.046       .  S
O31          C41   1.283       .  A
O32         Cu37   2.045       .  S
O32          C42   1.283       .  A
O33         Cu38   1.959       .  S
O33          C42   1.271       .  A
O34         Cu38   1.972       .  S
O34          C41   1.272       .  A
O35         Cu38   2.033       .  S
O35          C40   1.282       .  A
O36         Cu38   2.036       .  S
O36          C39   1.282       .  A
Cu37        Cu38   2.373       .  S
C39         C630   1.469       .  S
C40         C593   1.479       .  S
C41         C742   1.477       .  S
C42         C770   1.475       .  S
O43         Cu51   1.969       .  S
O43          C53   1.273       .  A
O44         Cu51   1.962       .  S
O44          C54   1.271   1_545  A
O45         Cu51   2.042       .  S
O45          C55   1.283   1_545  A
O46         Cu51   2.038       .  S
O46          C56   1.282       .  A
O47         Cu52   1.997       .  S
O47          C56   1.276   1_565  A
O48         Cu52   1.975       .  S
O48          C55   1.274       .  A
O49         Cu52   2.039       .  S
O49          C54   1.282       .  A
O50         Cu52   2.033       .  S
O50          C53   1.282   1_565  A
Cu51        Cu52   2.371   1_545  S
C53         C602   1.477       .  S
C54         C574   1.468       .  S
C55         C714   1.488       .  S
C56         C686   1.481       .  S
O57         Cu65   1.978       .  S
O57          C67   1.273   1_565  A
O58         Cu65   1.995   1_545  S
O58          C68   1.274       .  A
O59         Cu65   2.046   1_545  S
O59          C69   1.284       .  A
O60         Cu65   2.045       .  S
O60          C70   1.283   1_565  A
O61         Cu66   1.983       .  S
O61          C70   1.274       .  A
O62         Cu66   1.993       .  S
O62          C69   1.274       .  A
O63         Cu66   2.061       .  S
O63          C68   1.285       .  A
O64         Cu66   2.061       .  S
O64          C67   1.284       .  A
Cu65        Cu66   2.365   1_565  S
C67         C481   1.487       .  S
C68         C518   1.490       .  S
C69         C537   1.498       .  S
C70         C658   1.487       .  S
O71         Cu79   1.980       .  S
O71          C81   1.273       .  A
O72         Cu79   1.960       .  S
O72          C82   1.272       .  A
O73         Cu79   2.052       .  S
O73          C83   1.284       .  A
O74         Cu79   2.054       .  S
O74          C84   1.284       .  A
O75         Cu80   1.984       .  S
O75          C84   1.274       .  A
O76         Cu80   1.975       .  S
O76          C83   1.273       .  A
O77         Cu80   2.049       .  S
O77          C82   1.283       .  A
O78         Cu80   2.047       .  S
O78          C81   1.284       .  A
Cu79        Cu80   2.367       .  S
C81         C462   1.486       .  S
C82         C434   1.480       .  S
C83         C397   1.487       .  S
C84         C546   1.493       .  S
O85         Cu93   1.949       .  S
O85          C95   1.270       .  A
O86         Cu93   1.973       .  S
O86          C96   1.271       .  A
O87         Cu93   2.068       .  S
O87          C97   1.286       .  A
O88         Cu93   2.066       .  S
O88          C98   1.285       .  A
O89         Cu94   1.969       .  S
O89          C98   1.270       .  A
O90         Cu94   1.988   1_545  S
O90          C97   1.274   1_545  A
O91         Cu94   2.062       .  S
O91          C96   1.286       .  A
O92         Cu94   2.060   1_545  S
O92          C95   1.285   1_545  A
Cu93        Cu94   2.366       .  S
C95         C565   1.488       .  S
C96         C369   1.484       .  S
C97         C509   1.504       .  S
C98         C490   1.477       .  S
O99        Cu107   1.974       .  S
O99         C109   1.273       .  A
O100       Cu107   1.992       .  S
O100        C110   1.276       .  A
O101       Cu107   2.048       .  S
O101        C111   1.283       .  A
O102       Cu107   2.048       .  S
O102        C112   1.283       .  A
O103       Cu108   1.960       .  S
O103        C112   1.271       .  A
O104       Cu108   1.976       .  S
O104        C111   1.274       .  A
O105       Cu108   2.051       .  S
O105        C110   1.283       .  A
O106       Cu108   2.051       .  S
O106        C109   1.284       .  A
Cu107      Cu108   2.367       .  S
C109        C341   1.482       .  S
C110        C378   1.499       .  S
C111        C453   1.492       .  S
C112        C425   1.471       .  S
O113       Cu121   1.986       .  S
O113        C123   1.273       .  A
O114       Cu121   1.965       .  S
O114        C124   1.271       .  A
O115       Cu121   2.062       .  S
O115        C125   1.285       .  A
O116       Cu121   2.053       .  S
O116        C126   1.285       .  A
O117       Cu122   1.976       .  S
O117        C126   1.272       .  A
O118       Cu122   1.957       .  S
O118        C125   1.271       .  A
O119       Cu122   2.053       .  S
O119        C124   1.283       .  A
O120       Cu122   2.055       .  S
O120        C123   1.284       .  A
Cu121      Cu122   2.368       .  S
C123        C266   1.485       .  S
C124        C294   1.475       .  S
C125        C350   1.488       .  S
C126        C313   1.491       .  S
O127       Cu135   1.985       .  S
O127        C137   1.274       .  A
O128       Cu135   1.971       .  S
O128        C138   1.272       .  A
O129       Cu135   2.056       .  S
O129        C139   1.285       .  A
O130       Cu135   2.056       .  S
O130        C140   1.284       .  A
O131       Cu136   1.971       .  S
O131        C140   1.273       .  A
O132       Cu136   1.973       .  S
O132        C139   1.273       .  A
O133       Cu136   2.040       .  S
O133        C138   1.282       .  A
O134       Cu136   2.037       .  S
O134        C137   1.282       .  A
Cu135      Cu136   2.370       .  S
C137        C201   1.480       .  S
C138        C229   1.470       .  S
C139        C826   1.485       .  S
C140        C322   1.485       .  S
O141       Cu149   1.986       .  S
O141        C151   1.274       .  A
O142       Cu149   1.963       .  S
O142        C152   1.272       .  A
O143       Cu149   2.047       .  S
O143        C153   1.284       .  A
O144       Cu149   2.051       .  S
O144        C154   1.283       .  A
O145       Cu150   1.990       .  S
O145        C154   1.275       .  A
O146       Cu150   1.974       .  S
O146        C153   1.272       .  A
O147       Cu150   2.058       .  S
O147        C152   1.284       .  A
O148       Cu150   2.055       .  S
O148        C151   1.284       .  A
Cu149      Cu150   2.368       .  S
C151        C257   1.489       .  S
C152        C285   1.486       .  S
C153        C406   1.478       .  S
C154        C173   1.494       .  S
O155       Cu163   1.963       .  S
O155        C165   1.273   1_455  A
O156       Cu163   1.981       .  S
O156        C166   1.273       .  A
O157       Cu163   2.037       .  S
O157        C167   1.282   1_455  A
O158       Cu163   2.039       .  S
O158        C168   1.282       .  A
O159       Cu164   1.975       .  S
O159        C168   1.273   1_655  A
O160       Cu164   1.986       .  S
O160        C167   1.274       .  A
O161       Cu164   2.048       .  S
O161        C166   1.284   1_655  A
O162       Cu164   2.040       .  S
O162        C165   1.282       .  A
Cu163      Cu164   2.368   1_455  S
C165        C621   1.483       .  S
C166        C182   1.488       .  S
C167        C210   1.482       .  S
C168        C238   1.474       .  S
C169        C170   1.407       .  A
C169        C174   1.410       .  A
C169        H179   1.081   1_556  S
C170        C175   1.492   1_556  S
C170        C171   1.409       .  A
C171        C172   1.399       .  A
C171        N176   1.430       .  S
C172        C173   1.407       .  A
C172        H177   1.082       .  S
C173        C174   1.414       .  A
C174        N178   1.428       .  S
C175        C180   1.412       .  A
C175        C184   1.402       .  A
N176        O191   1.262       .  A
N176        O192   1.262       .  A
N178        O189   1.262       .  A
N178        O190   1.262       .  A
C180        C181   1.408       .  A
C180        N185   1.428       .  S
C181        C182   1.406       .  A
C181        H186   1.082   1_455  S
C182        C183   1.415       .  A
C183        C184   1.399       .  A
C183        N187   1.430       .  S
C184        H188   1.082       .  S
N185        O195   1.262       .  A
N185        O196   1.261   1_454  A
N187        O193   1.262       .  A
N187        O194   1.262       .  A
C197        C198   1.399       .  A
C197        C202   1.399       .  A
C197        H207   1.082       .  S
C198        C203   1.479       .  S
C198        C199   1.409       .  A
C199        C200   1.404       .  A
C199        N204   1.428       .  S
C200        C201   1.404       .  A
C200        H205   1.082       .  S
C201        C202   1.414       .  A
C202        N206   1.429       .  S
C203        C208   1.405       .  A
C203        C212   1.403       .  A
N204        O219   1.262       .  A
N204        O220   1.262       .  A
N206        O217   1.262       .  A
N206        O218   1.262   1_655  A
C208        C209   1.399       .  A
C208        N213   1.428       .  S
C209        C210   1.406       .  A
C209        H214   1.082       .  S
C210        C211   1.412   1_655  A
C211        C212   1.404   1_455  A
C211        N215   1.429       .  S
C212        H216   1.082   1_655  S
N213        O223   1.262       .  A
N213        O224   1.262       .  A
N215        O221   1.262       .  A
N215        O222   1.262       .  A
C225        C226   1.404       .  A
C225        C230   1.402       .  A
C225        H235   1.082       .  S
C226        C231   1.474   1_565  S
C226        C227   1.405       .  A
C227        C228   1.398       .  A
C227        N232   1.429   1_655  S
C228        C229   1.404       .  A
C228        H233   1.081   1_655  S
C229        C230   1.407       .  A
C230        N234   1.429       .  S
C231        C236   1.411   1_655  A
C231        C240   1.396       .  A
N232        O247   1.262       .  A
N232        O248   1.261       .  A
N234        O245   1.262       .  A
N234        O246   1.261       .  A
C236        C237   1.404       .  A
C236        N241   1.428       .  S
C237        C238   1.402       .  A
C237        H242   1.082       .  S
C238        C239   1.412   1_455  A
C239        C240   1.395       .  A
C239        N243   1.428       .  S
C240        H244   1.083   1_545  S
N241        O251   1.262       .  A
N241        O252   1.262       .  A
N243        O249   1.262       .  A
N243        O250   1.262       .  A
C253        C254   1.405       .  A
C253        C258   1.407       .  A
C253        H263   1.082       .  S
C254        C259   1.490       .  S
C254        C255   1.408       .  A
C255        C256   1.403       .  A
C255        N260   1.429       .  S
C256        C257   1.408       .  A
C256        H261   1.082       .  S
C257        C258   1.412       .  A
C258        N262   1.428       .  S
C259        C264   1.412       .  A
C259        C268   1.402       .  A
N260        O275   1.262       .  A
N260        O276   1.262       .  A
N262        O273   1.262       .  A
N262        O274   1.262       .  A
C264        C265   1.406       .  A
C264        N269   1.428       .  S
C265        C266   1.403       .  A
C265        H270   1.082       .  S
C266        C267   1.415       .  A
C267        C268   1.403       .  A
C267        N271   1.430       .  S
C268        H272   1.082       .  S
N269        O279   1.262       .  A
N269        O280   1.262       .  A
N271        O277   1.262       .  A
N271        O278   1.262       .  A
C281        C282   1.410       .  A
C281        C286   1.407   1_655  A
C281        H291   1.081       .  S
C282        C287   1.489   1_545  S
C282        C283   1.406   1_655  A
C283        C284   1.396       .  A
C283        N288   1.429   1_545  S
C284        C285   1.409       .  A
C284        H289   1.082       .  S
C285        C286   1.409       .  A
C286        N290   1.428       .  S
C287        C292   1.409       .  A
C287        C296   1.410       .  A
N288        O303   1.262       .  A
N288        O304   1.262       .  A
N290        O301   1.262   1_455  A
N290        O302   1.262   1_455  A
C292        C293   1.395       .  A
C292        N297   1.430       .  S
C293        C294   1.402       .  A
C293        H298   1.082       .  S
C294        C295   1.409       .  A
C295        C296   1.408       .  A
C295        N299   1.429       .  S
C296        H300   1.081       .  S
N297        O307   1.262       .  A
N297        O308   1.262       .  A
N299        O305   1.262       .  A
N299        O306   1.262       .  A
C309        C310   1.399       .  A
C309        C314   1.398       .  A
C309        H319   1.082       .  S
C310        C315   1.487   1_556  S
C310        C311   1.410       .  A
C311        C312   1.407       .  A
C311        N316   1.428   1_556  S
C312        C313   1.407       .  A
C312        H317   1.082       .  S
C313        C314   1.419       .  A
C314        N318   1.430       .  S
C315        C320   1.408       .  A
C315        C324   1.407       .  A
N316        O331   1.262   1_554  A
N316        O332   1.262       .  A
N318        O329   1.262       .  A
N318        O330   1.262       .  A
C320        C321   1.396       .  A
C320        N325   1.430       .  S
C321        C322   1.406       .  A
C321        H326   1.083       .  S
C322        C323   1.411       .  A
C323        C324   1.409       .  A
C323        N327   1.428       .  S
C324        H328   1.082       .  S
N325        O335   1.262       .  A
N325        O336   1.262       .  A
N327        O333   1.262   1_655  A
N327        O334   1.261       .  A
C337        C338   1.407       .  A
C337        C342   1.406       .  A
C337        H347   1.082       .  S
C338        C343   1.484       .  S
C338        C339   1.404       .  A
C339        C340   1.398       .  A
C339        N344   1.429       .  S
C340        C341   1.407       .  A
C340        H345   1.083       .  S
C341        C342   1.411       .  A
C342        N346   1.429       .  S
C343        C348   1.402       .  A
C343        C352   1.408       .  A
N344        O359   1.262       .  A
N344        O360   1.262       .  A
N346        O357   1.262       .  A
N346        O358   1.262       .  A
C348        C349   1.395       .  A
C348        N353   1.429       .  S
C349        C350   1.409       .  A
C349        H354   1.082       .  S
C350        C351   1.412       .  A
C351        C352   1.409       .  A
C351        N355   1.429       .  S
C352        H356   1.082       .  S
N353        O363   1.262       .  A
N353        O364   1.262       .  A
N355        O361   1.262       .  A
N355        O362   1.262       .  A
C365        C366   1.404       .  A
C365        C370   1.401       .  A
C365        H375   1.081       .  S
C366        C371   1.496       .  S
C366        C367   1.414       .  A
C367        C368   1.409       .  A
C367        N372   1.428       .  S
C368        C369   1.404       .  A
C368        H373   1.082       .  S
C369        C370   1.413       .  A
C370        N374   1.430       .  S
C371        C376   1.409       .  A
C371        C380   1.408       .  A
N372        O387   1.262       .  A
N372        O388   1.261       .  A
N374        O385   1.262       .  A
N374        O386   1.262       .  A
C376        C377   1.400       .  A
C376        N381   1.430       .  S
C377        C378   1.410       .  A
C377        H382   1.081       .  S
C378        C379   1.415       .  A
C379        C380   1.410       .  A
C379        N383   1.428       .  S
C380        H384   1.081       .  S
N381        O391   1.262       .  A
N381        O392   1.262       .  A
N383        O389   1.262       .  A
N383        O390   1.262       .  A
C393        C394   1.406       .  A
C393        C398   1.407       .  A
C393        H403   1.082       .  S
C394        C399   1.482       .  S
C394        C395   1.403       .  A
C395        C396   1.398       .  A
C395        N400   1.429       .  S
C396        C397   1.409       .  A
C396        H401   1.082       .  S
C397        C398   1.412       .  A
C398        N402   1.429       .  S
C399        C404   1.405       .  A
C399        C408   1.406       .  A
N400        O415   1.262       .  A
N400        O416   1.262       .  A
N402        O413   1.262       .  A
N402        O414   1.262       .  A
C404        C405   1.399       .  A
C404        N409   1.428       .  S
C405        C406   1.406       .  A
C405        H410   1.081       .  S
C406        C407   1.410       .  A
C407        C408   1.405       .  A
C407        N411   1.429       .  S
C408        H412   1.082       .  S
N409        O419   1.262       .  A
N409        O420   1.262       .  A
N411        O417   1.262       .  A
N411        O418   1.261       .  A
C421        C422   1.409       .  A
C421        C426   1.404       .  A
C421        H431   1.080       .  S
C422        C427   1.487   1_565  S
C422        C423   1.410       .  A
C423        C424   1.395       .  A
C423        N428   1.430       .  S
C424        C425   1.402       .  A
C424        H429   1.082       .  S
C425        C426   1.407       .  A
C426        N430   1.429       .  S
C427        C432   1.407       .  A
C427        C436   1.410   1_645  A
N428        O443   1.262       .  A
N428        O444   1.262       .  A
N430        O441   1.261       .  A
N430        O442   1.261       .  A
C432        C433   1.394   1_655  A
C432        N437   1.429       .  S
C433        C434   1.407       .  A
C433        H438   1.082       .  S
C434        C435   1.408       .  A
C435        C436   1.405   1_545  A
C435        N439   1.428       .  S
C436        H440   1.081       .  S
N437        O447   1.262       .  A
N437        O448   1.262       .  A
N439        O445   1.262       .  A
N439        O446   1.262       .  A
C449        C450   1.405       .  A
C449        C454   1.407       .  A
C449        H459   1.083       .  S
C450        C455   1.483       .  S
C450        C451   1.405       .  A
C451        C452   1.397       .  A
C451        N456   1.430       .  S
C452        C453   1.410       .  A
C452        H457   1.082       .  S
C453        C454   1.414       .  A
C454        N458   1.428       .  S
C455        C460   1.411       .  A
C455        C464   1.399       .  A
N456        O471   1.262       .  A
N456        O472   1.262       .  A
N458        O469   1.262       .  A
N458        O470   1.262       .  A
C460        C461   1.405       .  A
C460        N465   1.430       .  S
C461        C462   1.404       .  A
C461        H466   1.082       .  S
C462        C463   1.417       .  A
C463        C464   1.401       .  A
C463        N467   1.429       .  S
C464        H468   1.083       .  S
N465        O475   1.262       .  A
N465        O476   1.262       .  A
N467        O473   1.262       .  A
N467        O474   1.262       .  A
C477        C478   1.411   1_445  A
C477        C482   1.409       .  A
C477        H487   1.081       .  S
C478        C483   1.496       .  S
C478        C479   1.408   1_655  A
C479        C480   1.400       .  A
C479        N484   1.429   1_455  S
C480        C481   1.407   1_565  A
C480        H485   1.081       .  S
C481        C482   1.409       .  A
C482        N486   1.428       .  S
C483        C488   1.412       .  A
C483        C492   1.409       .  A
N484        O499   1.262       .  A
N484        O500   1.262       .  A
N486        O497   1.262       .  A
N486        O498   1.262       .  A
C488        C489   1.401       .  A
C488        N493   1.429       .  S
C489        C490   1.402       .  A
C489        H494   1.082       .  S
C490        C491   1.410       .  A
C491        C492   1.408       .  A
C491        N495   1.429       .  S
C492        H496   1.081       .  S
N493        O503   1.262   1_565  A
N493        O504   1.262       .  A
N495        O501   1.262       .  A
N495        O502   1.262       .  A
C505        C506   1.408   1_565  A
C505        C510   1.411       .  A
C505        H515   1.083       .  S
C506        C511   1.498       .  S
C506        C507   1.409       .  A
C507        C508   1.404       .  A
C507        N512   1.431       .  S
C508        C509   1.412   1_545  A
C508        H513   1.082       .  S
C509        C510   1.414       .  A
C510        N514   1.427       .  S
C511        C516   1.416       .  A
C511        C520   1.403       .  A
N512        O527   1.262       .  A
N512        O528   1.262       .  A
N514        O525   1.262       .  A
N514        O526   1.262       .  A
C516        C517   1.411       .  A
C516        N521   1.432       .  S
C517        C518   1.405       .  A
C517        H522   1.082       .  S
C518        C519   1.413       .  A
C519        C520   1.404       .  A
C519        N523   1.429       .  S
C520        H524   1.082   1_545  S
N521        O531   1.262       .  A
N521        O532   1.262       .  A
N523        O529   1.262   1_545  A
N523        O530   1.262       .  A
C533        C534   1.397       .  A
C533        C538   1.401       .  A
C533        H543   1.082       .  S
C534        C539   1.484       .  S
C534        C535   1.409       .  A
C535        C536   1.407       .  A
C535        N540   1.428       .  S
C536        C537   1.409       .  A
C536        H541   1.082       .  S
C537        C538   1.422       .  A
C538        N542   1.429       .  S
C539        C544   1.405       .  A
C539        C548   1.405       .  A
N540        O555   1.262   1_545  A
N540        O556   1.261   1_545  A
N542        O553   1.262       .  A
N542        O554   1.262       .  A
C544        C545   1.399       .  A
C544        N549   1.429       .  S
C545        C546   1.409       .  A
C545        H550   1.084       .  S
C546        C547   1.414       .  A
C547        C548   1.409       .  A
C547        N551   1.428       .  S
C548        H552   1.084       .  S
N549        O559   1.262       .  A
N549        O560   1.262       .  A
N551        O557   1.262       .  A
N551        O558   1.262       .  A
C561        C562   1.408   1_545  A
C561        C566   1.407       .  A
C561        H571   1.082       .  S
C562        C567   1.480       .  S
C562        C563   1.401       .  A
C563        C564   1.392       .  A
C563        N568   1.429       .  S
C564        C565   1.411       .  A
C564        H569   1.082       .  S
C565        C566   1.412   1_565  A
C566        N570   1.429       .  S
C567        C572   1.406       .  A
C567        C576   1.407       .  A
N568        O583   1.262       .  A
N568        O584   1.262       .  A
N570        O581   1.262       .  A
N570        O582   1.262       .  A
C572        C573   1.395       .  A
C572        N577   1.429   1_565  S
C573        C574   1.403       .  A
C573        H578   1.082   1_565  S
C574        C575   1.408       .  A
C575        C576   1.403       .  A
C575        N579   1.430       .  S
C576        H580   1.081       .  S
N577        O587   1.262       .  A
N577        O588   1.262       .  A
N579        O585   1.262       .  A
N579        O586   1.262       .  A
C589        C590   1.398       .  A
C589        C594   1.394       .  A
C589        H599   1.083       .  S
C590        C595   1.480       .  S
C590        C591   1.414       .  A
C591        C592   1.405       .  A
C591        N596   1.432       .  S
C592        C593   1.403       .  A
C592        H597   1.082       .  S
C593        C594   1.415       .  A
C594        N598   1.430       .  S
C595        C600   1.409       .  A
C595        C604   1.406       .  A
N596        O611   1.262       .  A
N596        O612   1.262       .  A
N598        O609   1.262       .  A
N598        O610   1.262       .  A
C600        C601   1.397       .  A
C600        N605   1.432       .  S
C601        C602   1.405       .  A
C601        H606   1.083       .  S
C602        C603   1.409       .  A
C603        C604   1.401       .  A
C603        N607   1.429   1_545  S
C604        H608   1.083       .  S
N605        O615   1.262       .  A
N605        O616   1.262       .  A
N607        O613   1.262       .  A
N607        O614   1.262       .  A
C617        C618   1.407       .  A
C617        C622   1.404       .  A
C617        H627   1.081       .  S
C618        C623   1.480       .  S
C618        C619   1.404   1_655  A
C619        C620   1.392       .  A
C619        N624   1.430       .  S
C620        C621   1.409   1_455  A
C620        H625   1.082       .  S
C621        C622   1.412       .  A
C622        N626   1.429       .  S
C623        C628   1.407       .  A
C623        C632   1.408       .  A
N624        O639   1.262       .  A
N624        O640   1.262       .  A
N626        O637   1.262       .  A
N626        O638   1.261       .  A
C628        C629   1.393       .  A
C628        N633   1.430       .  S
C629        C630   1.404       .  A
C629        H634   1.080       .  S
C630        C631   1.406       .  A
C631        C632   1.401       .  A
C631        N635   1.429   1_655  S
C632        H636   1.080   1_655  S
N633        O643   1.262       .  A
N633        O644   1.262       .  A
N635        O641   1.262       .  A
N635        O642   1.262       .  A
C645        C646   1.408   1_545  A
C645        C650   1.408       .  A
C645        H655   1.080       .  S
C646        C651   1.492   1_565  S
C646        C647   1.408       .  A
C647        C648   1.397       .  A
C647        N652   1.430       .  S
C648        C649   1.407       .  A
C648        H653   1.081       .  S
C649        C650   1.414   1_565  A
C650        N654   1.430       .  S
C651        C656   1.409       .  A
C651        C660   1.408   1_545  A
N652        O667   1.262       .  A
N652        O668   1.262       .  A
N654        O665   1.262       .  A
N654        O666   1.261       .  A
C656        C657   1.401       .  A
C656        N661   1.430       .  S
C657        C658   1.408       .  A
C657        H662   1.081       .  S
C658        C659   1.410   1_545  A
C659        C660   1.403       .  A
C659        N663   1.428       .  S
C660        H664   1.081       .  S
N661        O671   1.262       .  A
N661        O672   1.262       .  A
N663        O669   1.262       .  A
N663        O670   1.262       .  A
C673        C674   1.404       .  A
C673        C678   1.404       .  A
C673        H683   1.083       .  S
C674        C679   1.486       .  S
C674        C675   1.408   1_565  A
C675        C676   1.401       .  A
C675        N680   1.430       .  S
C676        C677   1.410   1_545  A
C676        H681   1.082       .  S
C677        C678   1.414       .  A
C678        N682   1.428       .  S
C679        C684   1.413   1_565  A
C679        C688   1.402       .  A
N680        O695   1.262       .  A
N680        O696   1.262       .  A
N682        O693   1.262       .  A
N682        O694   1.262       .  A
C684        C685   1.406       .  A
C684        N689   1.430       .  S
C685        C686   1.404       .  A
C685        H690   1.082       .  S
C686        C687   1.411   1_545  A
C687        C688   1.401       .  A
C687        N691   1.429       .  S
C688        H692   1.083       .  S
N689        O699   1.262       .  A
N689        O700   1.262       .  A
N691        O697   1.262       .  A
N691        O698   1.262   1_565  A
C701        C702   1.401       .  A
C701        C706   1.402   1_655  A
C701        H711   1.082       .  S
C702        C707   1.478       .  S
C702        C703   1.410       .  A
C703        C704   1.401   1_655  A
C703        N708   1.430       .  S
C704        C705   1.401       .  A
C704        H709   1.083       .  S
C705        C706   1.408       .  A
C706        N710   1.428       .  S
C707        C712   1.404       .  A
C707        C716   1.403       .  A
N708        O723   1.262       .  A
N708        O724   1.262       .  A
N710        O721   1.262       .  A
N710        O722   1.261       .  A
C712        C713   1.397       .  A
C712        N717   1.429       .  S
C713        C714   1.410       .  A
C713        H718   1.082       .  S
C714        C715   1.413   1_565  A
C715        C716   1.405   1_545  A
C715        N719   1.428       .  S
C716        H720   1.082   1_565  S
N717        O727   1.262       .  A
N717        O728   1.262       .  A
N719        O725   1.262       .  A
N719        O726   1.262       .  A
C729        C730   1.399       .  A
C729        C734   1.399       .  A
C729        H739   1.082       .  S
C730        C735   1.480       .  S
C730        C731   1.410       .  A
C731        C732   1.404   1_655  A
C731        N736   1.428   1_655  S
C732        C733   1.404   1_455  A
C732        H737   1.082       .  S
C733        C734   1.415       .  A
C734        N738   1.429       .  S
C735        C740   1.407       .  A
C735        C744   1.404       .  A
N736        O751   1.262       .  A
N736        O752   1.262       .  A
N738        O749   1.262       .  A
N738        O750   1.262       .  A
C740        C741   1.399       .  A
C740        N745   1.429       .  S
C741        C742   1.406       .  A
C741        H746   1.082       .  S
C742        C743   1.409       .  A
C743        C744   1.403       .  A
C743        N747   1.428       .  S
C744        H748   1.082       .  S
N745        O755   1.262       .  A
N745        O756   1.262   1_655  A
N747        O753   1.261       .  A
N747        O754   1.262       .  A
C757        C758   1.408   1_455  A
C757        C762   1.405       .  A
C757        H767   1.081       .  S
C758        C763   1.484       .  S
C758        C759   1.406       .  A
C759        C760   1.393       .  A
C759        N764   1.430       .  S
C760        C761   1.409       .  A
C760        H765   1.081       .  S
C761        C762   1.411   1_655  A
C762        N766   1.428       .  S
C763        C768   1.408   1_565  A
C763        C772   1.409       .  A
N764        O779   1.262       .  A
N764        O780   1.262       .  A
N766        O777   1.262       .  A
N766        O778   1.262       .  A
C768        C769   1.393       .  A
C768        N773   1.430   1_655  S
C769        C770   1.404       .  A
C769        H774   1.082       .  S
C770        C771   1.408       .  A
C771        C772   1.405   1_545  A
C771        N775   1.429       .  S
C772        H776   1.081       .  S
N773        O783   1.262       .  A
N773        O784   1.262   1_445  A
N775        O781   1.262       .  A
N775        O782   1.262       .  A
C785        C786   1.400       .  A
C785        C790   1.403       .  A
C785        H795   1.082       .  S
C786        C791   1.486       .  S
C786        C787   1.408       .  A
C787        C788   1.405       .  A
C787        N792   1.428       .  S
C788        C789   1.408       .  A
C788        H793   1.081       .  S
C789        C790   1.418       .  A
C790        N794   1.429       .  S
C791        C796   1.405       .  A
C791        C800   1.405       .  A
N792        O807   1.262       .  A
N792        O808   1.262       .  A
N794        O805   1.262       .  A
N794        O806   1.262       .  A
C796        C797   1.399       .  A
C796        N801   1.429       .  S
C797        C798   1.410       .  A
C797        H802   1.082       .  S
C798        C799   1.414       .  A
C799        C800   1.408       .  A
C799        N803   1.428   1_455  S
C800        H804   1.082       .  S
N801        O811   1.262       .  A
N801        O812   1.262       .  A
N803        O809   1.262       .  A
N803        O810   1.262       .  A
C813        C814   1.407       .  A
C813        C818   1.408       .  A
C813        H823   1.082       .  S
C814        C819   1.486       .  S
C814        C815   1.405       .  A
C815        C816   1.398       .  A
C815        N820   1.429   1_655  S
C816        C817   1.407       .  A
C816        H821   1.082   1_655  S
C817        C818   1.411       .  A
C818        N822   1.429       .  S
C819        C824   1.405       .  A
C819        C828   1.408       .  A
N820        O835   1.262       .  A
N820        O836   1.262       .  A
N822        O833   1.262       .  A
N822        O834   1.262       .  A
C824        C825   1.398       .  A
C824        N829   1.429       .  S
C825        C826   1.408       .  A
C825        H830   1.082       .  S
C826        C827   1.410       .  A
C827        C828   1.407       .  A
C827        N831   1.429   1_655  S
C828        H832   1.082   1_655  S
N829        O839   1.262       .  A
N829        O840   1.262       .  A
N831        O837   1.262       .  A
N831        O838   1.262       .  A
