geometry optimzed in LAMMPS
_audit_creation_date              2020-12-01 
_audit_creation_method            'lammps2cif' 
_symmetry_space_group_name_H-M    'P1' 
_symmetry_Int_Tables_number       1 
_symmetry_cell_setting            triclinic 
loop_ 
_symmetry_equiv_pos_as_xyz 
  x,y,z 
_cell_length_a                    36.70028212 
_cell_length_b                    40.346157065681034 
_cell_length_c                    37.43288971186238 
_cell_angle_alpha                 89.80892168753566 
_cell_angle_beta                  90.38041712627465 
_cell_angle_gamma                 90.01765623679078 
loop_ 
_atom_site_label 
_atom_site_type_symbol 
_atom_site_fract_x 
_atom_site_fract_y 
_atom_site_fract_z 
_atom_site_charge 
C1          C  0.79208038  0.86164049  0.01656219     0.79700
N2          N  0.81048764  0.89028962  0.01174766    -0.78600
C3          C  0.83131471  0.89484285  0.98242436     0.82200
N4          N  0.83399574  0.86999696  0.95758331    -0.78500
C5          C  0.81467278  0.84116424  0.96190185     0.82300
N6          N  0.79415072  0.83755271  0.99158111    -0.80200
C7          C  0.75645485  0.15096060  0.03956432     0.79700
N8          N  0.78882409  0.13376126  0.03894942    -0.78600
C9          C  0.79836300  0.11586192  0.00910527     0.82200
N10         N  0.77533420  0.11656581  0.97974111    -0.78500
C11         C  0.74337238  0.13441998  0.98023093     0.82300
N12         N  0.73479196  0.15088172  0.01034241    -0.80200
C13         C  0.11529245  0.89302065  0.02615849     0.79700
N14         N  0.08791861  0.91513208  0.02178183    -0.78600
C15         C  0.06647109  0.91460686  0.99218629     0.82200
N16         N  0.07224865  0.89096253  0.96651941    -0.78500
C17         C  0.10089539  0.86930248  0.97010622     0.82300
N18         N  0.12181407  0.87065093  0.00004357    -0.80200
C19         C  0.79980340  0.04405680  0.82542123     0.79700
N20         N  0.82088767  0.04078171  0.85490254    -0.78600
C21         C  0.81999257  0.01331054  0.87561311     0.82200
N22         N  0.79697433  0.98763729  0.86622495    -0.78500
C23         C  0.77607939  0.99002904  0.83540930     0.82300
N24         N  0.77774024  0.01846043  0.81570385    -0.80200
C25         C  0.90181709  0.19355875  0.87199248     0.79700
N26         N  0.90098470  0.16696052  0.89512990    -0.78600
C27         C  0.93209333  0.14826782  0.90078124     0.82200
N28         N  0.96285650  0.15577737  0.88115422    -0.78500
C29         C  0.96318664  0.18306903  0.85898757     0.82300
N30         N  0.93290298  0.20118701  0.85543856    -0.80200
C31         C  0.91023648  0.91526571  0.81392466     0.79700
N32         N  0.91497571  0.93150071  0.84505640    -0.78600
C33         C  0.94825512  0.93357165  0.86073313     0.82200
N34         N  0.97782102  0.91875558  0.84500186    -0.78500
C35         C  0.97305302  0.90256626  0.81308681     0.82300
N36         N  0.93937294  0.90114412  0.79829137    -0.80200
C37         C  0.08904123  0.03033541  0.83516884     0.79700
N38         N  0.06437097  0.03905036  0.86042238    -0.78600
C39         C  0.05911671  0.01913185  0.88922224     0.82200
N40         N  0.07739925  0.98983697  0.89186537    -0.78500
C41         C  0.10165412  0.98092659  0.86637695     0.82300
N42         N  0.10760075  0.00150793  0.83845235    -0.80200
C43         C  0.90477451  0.83953930  0.12311722     0.79700
N44         N  0.90659304  0.87088369  0.10890885    -0.78600
C45         C  0.93828911  0.88198153  0.09363949     0.82200
N46         N  0.96828627  0.86152955  0.09402264    -0.78500
C47         C  0.96669797  0.83054160  0.10927112     0.82300
N48         N  0.93471330  0.82018532  0.12304349    -0.80200
C49         C  0.76887016  0.03703324  0.14905100     0.79700
N50         N  0.75190384  0.00979906  0.16199575    -0.78600
C51         C  0.76170212  0.97869651  0.15269652     0.82200
N52         N  0.79028961  0.97457836  0.12935475    -0.78500
C53         C  0.80825089  0.00205205  0.11597005     0.82300
N54         N  0.79716791  0.03293384  0.12612020    -0.80200
C55         C  0.90207129  0.13733982  0.19006056     0.79700
N56         N  0.90139118  0.12080849  0.15801337    -0.78600
C57         C  0.93229996  0.10523851  0.14576411     0.82200
N58         N  0.96401490  0.10781512  0.16561562    -0.78500
C59         C  0.96471265  0.12508193  0.19729064     0.82300
N60         N  0.93354195  0.13913880  0.20865915    -0.80200
Zr61       Zr  0.23753979  0.29231335  0.29137973     2.17500
O62         O  0.29178400  0.29571253  0.32932198    -0.51800
O63         O  0.22814190  0.34608666  0.31946519    -0.75000
O64         O  0.28960369  0.31622985  0.26332029    -0.81800
O65         O  0.18420914  0.25598244  0.36420687    -0.83500
O66         O  0.26582187  0.34206266  0.21514469    -0.79200
O67         O  0.24011336  0.25679348  0.34274399    -0.90800
O68         O  0.17707879  0.36927539  0.29597877    -0.76800
O69         O  0.20813160  0.32535248  0.24725906    -0.86300
O70         O  0.17447528  0.29382559  0.30726199    -0.86000
O71         O  0.25163662  0.26717521  0.23458182    -0.72700
O72         O  0.21816957  0.23536404  0.29223565    -0.84800
Zr73       Zr  0.13831719  0.24498464  0.20852106     2.26400
Zr74       Zr  0.22021720  0.30042559  0.19043784     2.06300
Zr75       Zr  0.15427344  0.23656624  0.30802667     2.10000
Zr76       Zr  0.14567832  0.32669351  0.26272570     1.78800
O77         O  0.16484676  0.18775312  0.34505156    -0.93600
O78         O  0.14464313  0.37573503  0.22457566    -0.41500
O79         O  0.12412119  0.27045610  0.26411849    -0.78100
O80         O  0.15676837  0.30207173  0.20618257    -0.96800
O81         O  0.20067475  0.24369618  0.19121049    -0.90100
O82         O  0.16841055  0.21164109  0.25211473    -0.92900
C83         C  0.20625883  0.37060089  0.31485317     1.00800
C84         C  0.21829144  0.26315911  0.36790582     1.13800
C85         C  0.28841474  0.34082249  0.24209745     1.04500
O86         O  0.20283157  0.34926234  0.15598257    -0.95100
O87         O  0.19190048  0.27173104  0.13626409    -0.90800
O88         O  0.13321659  0.26979991  0.15125029    -0.84000
C89         C  0.15804061  0.26455744  0.12885849     1.11200
O90         O  0.29213843  0.20338346  0.25816836    -0.97000
Zr91       Zr  0.23045096  0.21098656  0.23517590     1.88900
O92         O  0.14717519  0.19334732  0.17646558    -0.73700
O93         O  0.27293771  0.29415542  0.15181462    -0.53000
O94         O  0.27020836  0.19952208  0.18484949    -0.97600
O95         O  0.23809531  0.15890803  0.26751890    -0.54900
O96         O  0.19810911  0.16971174  0.19975299    -0.74200
C97         C  0.16890983  0.16868501  0.18062550     0.98100
O98         O  0.07466891  0.25312876  0.19154854    -0.63000
O99         O  0.10027932  0.25176281  0.34167539    -0.57800
O100        O  0.09462267  0.20623827  0.22853513    -0.94500
O101        O  0.10452078  0.19689813  0.28786303    -0.92900
O102        O  0.10482706  0.34169365  0.31104087    -0.93300
O103        O  0.08456653  0.33733691  0.23965777    -0.92100
C104        C  0.08818907  0.19078774  0.25749198     1.17000
H105        H  0.17084275  0.30470885  0.32989680     0.32900
H106        H  0.14331463  0.31499294  0.18880545     0.43800
H107        H  0.15996952  0.18900405  0.25187339     0.37300
H108        H  0.27744722  0.26686020  0.22970735     0.33800
H109        H  0.13408202  0.39340337  0.23959715     0.25600
H110        H  0.29337832  0.30481344  0.16478394     0.31500
H111        H  0.25619563  0.20667702  0.16348615     0.37400
H112        H  0.10188149  0.36600917  0.30877378     0.31900
H113        H  0.10865444  0.26957731  0.35790121     0.30700
H114        H  0.17374172  0.17075068  0.32822386     0.32400
H115        H  0.24239080  0.14208921  0.24880809     0.31400
H116        H  0.06912681  0.31995314  0.25055565     0.35400
H117        H  0.07245053  0.27690263  0.18524552     0.28100
H118        H  0.29960488  0.31920804  0.32947179     0.32400
H119        H  0.29402121  0.21892134  0.27852594     0.35200
H120        H  0.08431007  0.26320634  0.32414082     0.27800
H121        H  0.07143345  0.24113194  0.16870318     0.40700
H122        H  0.20174293  0.34156526  0.13091953     0.30700
H123        H  0.17056696  0.38205090  0.22194030     0.38400
H124        H  0.21356236  0.15364492  0.27678021     0.30200
H125        H  0.27860545  0.27017938  0.15285715     0.30300
H126        H  0.31129754  0.28348777  0.31683238     0.30500
C127        C  0.10969376  0.04015003  0.14542004     0.79700
N128        N  0.07970023  0.03726336  0.12417075    -0.78600
C129        C  0.05925321  0.00907642  0.12377047     0.82200
N130        N  0.06951660  0.98289562  0.14537769    -0.78500
C131        C  0.10053099  0.98536784  0.16628423     0.82300
N132        N  0.11979118  0.01399565  0.16592313    -0.80200
Zr133      Zr  0.23491247  0.73006781  0.27904755     2.17500
O134        O  0.29836533  0.71406551  0.27075662    -0.51800
O135        O  0.22400715  0.68909202  0.32452238    -0.75000
O136        O  0.27120993  0.74589432  0.32855268    -0.81800
O137        O  0.18968614  0.66394018  0.23284900    -0.83500
O138        O  0.26001438  0.79989408  0.34237206    -0.79200
O139        O  0.24511733  0.68470251  0.24000675    -0.90800
O140        O  0.17095857  0.70317899  0.35101251    -0.76800
O141        O  0.20244211  0.76523390  0.31819652    -0.86300
O142        O  0.17307231  0.71148532  0.27592756    -0.86000
O143        O  0.24743365  0.78575095  0.26060892    -0.72700
O144        O  0.21934803  0.73411102  0.21724928    -0.84800
Zr145      Zr  0.13481678  0.80678787  0.23422111     2.26400
Zr146      Zr  0.21229648  0.82112436  0.29894285     2.06300
Zr147      Zr  0.15675074  0.71641239  0.21387557     2.10000
Zr148      Zr  0.14148913  0.74642303  0.31565313     1.78800
O149        O  0.17608233  0.69514992  0.15623253    -0.93600
O150        O  0.14737027  0.76611141  0.37692624    -0.41500
O151        O  0.12288307  0.75132650  0.25404520    -0.78100
O152        O  0.14972237  0.80267717  0.29656914    -0.96800
O153        O  0.19618830  0.82555280  0.23715666    -0.90100
O154        O  0.16816871  0.77216074  0.19489573    -0.92900
C155        C  0.20015290  0.68570915  0.34902250     1.00800
C156        C  0.22345486  0.66047497  0.24276699     1.13800
C157        C  0.27610238  0.77148372  0.34775494     1.04500
O158        O  0.18817445  0.84755887  0.35214970    -0.95100
O159        O  0.18624985  0.87323207  0.27048176    -0.90800
O160        O  0.12811273  0.85843006  0.26419446    -0.84000
C161        C  0.15285450  0.88010718  0.26132845     1.11200
O162        O  0.29273207  0.77274228  0.19216120    -0.97000
Zr163      Zr  0.22961583  0.79007464  0.19914040     1.88900
O164        O  0.14544613  0.84223535  0.18253973    -0.73700
O165        O  0.26384467  0.85906539  0.30016627    -0.53000
O166        O  0.27222101  0.83550784  0.19001138    -0.97600
O167        O  0.23178361  0.76469167  0.14023210    -0.54900
O168        O  0.20101658  0.82997376  0.16006074    -0.74200
C169        C  0.17040364  0.84512823  0.15879864     0.98100
O170        O  0.07033539  0.82004701  0.24047847    -0.63000
O171        O  0.10789196  0.67563402  0.21543580    -0.57800
O172        O  0.09204036  0.79000162  0.19083397    -0.94500
O173        O  0.10539443  0.73711189  0.17422684    -0.92900
O174        O  0.09548012  0.70327072  0.32144984    -0.93300
O175        O  0.08168633  0.76649851  0.33341323    -0.92100
C176        C  0.08740013  0.76481393  0.17103378     1.17000
H177        H  0.16925047  0.68912063  0.28427177     0.32900
H178        H  0.13443650  0.81672190  0.31097279     0.43800
H179        H  0.16033447  0.77509789  0.17041608     0.37300
H180        H  0.27309534  0.79055870  0.26332233     0.33800
H181        H  0.13286016  0.78676306  0.37786682     0.25600
H182        H  0.26077450  0.87292482  0.27847559     0.31500
H183        H  0.26370928  0.85316962  0.20624896     0.37400
H184        H  0.09730431  0.69031776  0.29912826     0.31900
H185        H  0.11511736  0.65874517  0.19770984     0.30700
H186        H  0.15721788  0.70286814  0.13910598     0.32400
H187        H  0.24150762  0.74211836  0.14444883     0.31400
H188        H  0.06884424  0.77131512  0.31064754     0.35400
H189        H  0.06605662  0.82072759  0.26654775     0.28100
H190        H  0.30603757  0.70292068  0.29318557     0.32400
H191        H  0.29242192  0.74852252  0.19649395     0.35200
H192        H  0.11086387  0.66439665  0.23882413     0.27800
H193        H  0.06762992  0.84329354  0.23230433     0.40700
H194        H  0.18323622  0.82896846  0.36874507     0.30700
H195        H  0.13344433  0.74996987  0.39141481     0.38400
H196        H  0.25154611  0.77655463  0.12763738     0.30200
H197        H  0.25866902  0.87422921  0.32024145     0.30300
H198        H  0.31218992  0.73513682  0.27021269     0.30500
Zr199      Zr  0.73496178  0.25147294  0.21069769     2.17500
O200        O  0.78355886  0.25500376  0.16667301    -0.51800
O201        O  0.74056210  0.19285895  0.19542643    -0.75000
O202        O  0.79425843  0.25238225  0.23696172    -0.81800
O203        O  0.65981456  0.24900144  0.14558285    -0.83500
O204        O  0.78471266  0.22578205  0.28784532    -0.79200
O205        O  0.71609168  0.26757478  0.15187445    -0.90800
O206        O  0.70041107  0.16454354  0.22973081    -0.76800
O207        O  0.72562275  0.22392198  0.26639542    -0.86300
O208        O  0.67404215  0.23018332  0.21019644    -0.86000
O209        O  0.74692555  0.29281703  0.25620354    -0.72700
O210        O  0.69656391  0.29896038  0.20020456    -0.84800
Zr211      Zr  0.63763873  0.29078927  0.30136325     2.26400
Zr212      Zr  0.73678202  0.26435302  0.31223650     2.06300
Zr213      Zr  0.63508670  0.27759278  0.19971606     2.10000
Zr214      Zr  0.66535509  0.20328097  0.26550309     1.78800
O215        O  0.62612253  0.31736673  0.15143558    -0.93600
O216        O  0.68895899  0.16426512  0.30969889    -0.41500
O217        O  0.62550512  0.24976687  0.25630975    -0.78100
O218        O  0.67554211  0.24280789  0.31201876    -0.96800
O219        O  0.69841054  0.31156873  0.30208488    -0.90100
O220        O  0.64667788  0.31866678  0.24549300    -0.92900
C221        C  0.72544186  0.16581710  0.20588599     1.00800
C222        C  0.69362384  0.24859294  0.13613326     1.13800
C223        C  0.80208197  0.22888968  0.25802410     1.04500
O224        O  0.74328055  0.22783076  0.36378582    -0.95100
O225        O  0.71130851  0.29917353  0.36257334    -0.90800
O226        O  0.65401346  0.28096112  0.36217961    -0.84000
C227        C  0.67874384  0.29878131  0.37599073     1.11200
O228        O  0.75274058  0.35601917  0.20345080    -0.97000
Zr229      Zr  0.70697524  0.33879294  0.24662497     1.88900
O230        O  0.62971951  0.34948375  0.31398666    -0.73700
O231        O  0.79327269  0.29018823  0.33255799    -0.53000
O232        O  0.75408809  0.37238008  0.27482212    -0.97600
O233        O  0.68016513  0.38222731  0.20946627    -0.54900
O234        O  0.67524444  0.37672214  0.28586110    -0.74200
C235        C  0.64782379  0.37590900  0.30695518     0.98100
O236        O  0.59040707  0.28948763  0.34685667    -0.63000
O237        O  0.58185772  0.24659422  0.17971282    -0.57800
O238        O  0.57972851  0.28132801  0.27348568    -0.94500
O239        O  0.58099663  0.30856305  0.22231233    -0.92900
O240        O  0.62073298  0.16895244  0.23438896    -0.93300
O241        O  0.61596784  0.18301226  0.30281514    -0.92100
C242        C  0.56741889  0.30431191  0.25366165     1.17000
H243        H  0.67078810  0.21313692  0.19246200     0.32900
H244        H  0.67049796  0.23156449  0.33426614     0.43800
H245        H  0.63131629  0.33797530  0.24313815     0.37300
H246        H  0.77119354  0.30204920  0.25568357     0.33800
H247        H  0.68105904  0.14225134  0.30094991     0.25600
H248        H  0.81232932  0.27314764  0.32917282     0.31500
H249        H  0.75852492  0.36156320  0.29822509     0.37400
H250        H  0.62946164  0.16742647  0.20948300     0.31900
H251        H  0.58239994  0.24820723  0.15332329     0.30700
H252        H  0.62575432  0.33917511  0.16347137     0.32400
H253        H  0.68049134  0.37322297  0.18490543     0.31400
H254        H  0.59904037  0.20201463  0.30479391     0.35400
H255        H  0.57442308  0.30865114  0.34158363     0.28100
H256        H  0.79849658  0.23477976  0.16993646     0.32400
H257        H  0.76961976  0.33697557  0.20159872     0.35200
H258        H  0.58797146  0.22317047  0.18496185     0.27800
H259        H  0.57542625  0.26966995  0.34155436     0.40700
H260        H  0.76644766  0.21588893  0.35975139     0.30700
H261        H  0.71568464  0.16444929  0.30624910     0.38400
H262        H  0.69847122  0.40026468  0.20931251     0.30200
H263        H  0.79875205  0.30739135  0.31446693     0.30300
H264        H  0.79943473  0.27363414  0.17409625     0.30500
Zr265      Zr  0.63337237  0.72485087  0.27262682     2.17500
O266        O  0.58573463  0.68269150  0.27034250    -0.51800
O267        O  0.62631271  0.71023242  0.33489415    -0.75000
O268        O  0.65827042  0.67164906  0.26053750    -0.81800
O269        O  0.56860807  0.79108741  0.28959371    -0.83500
O270        O  0.71215141  0.67526046  0.28727386    -0.79200
O271        O  0.57178895  0.74230849  0.26263322    -0.90800
O272        O  0.66251639  0.74314023  0.36883062    -0.76800
O273        O  0.69215074  0.72908037  0.29952627    -0.86300
O274        O  0.63590289  0.77653550  0.30372415    -0.86000
O275        O  0.67586291  0.71892991  0.22390027    -0.72700
O276        O  0.61936487  0.76591862  0.22815304    -0.84800
Zr277      Zr  0.72449380  0.81744272  0.23826216     2.26400
Zr278      Zr  0.73524169  0.72407941  0.25205011     2.06300
Zr279      Zr  0.62195272  0.81824416  0.25914288     2.10000
Zr280      Zr  0.69475231  0.78038717  0.32958696     1.78800
O281        O  0.56957452  0.83182459  0.22165059    -0.93600
O282        O  0.73947165  0.74964600  0.36491423    -0.41500
O283        O  0.68180920  0.82257027  0.28622451    -0.78100
O284        O  0.73887526  0.77637425  0.28319908    -0.96800
O285        O  0.72201919  0.76568088  0.20798085    -0.90100
O286        O  0.66539101  0.81304826  0.21111875    -0.92900
C287        C  0.63934110  0.71965413  0.36502410     1.00800
C288        C  0.55727044  0.76088454  0.28585382     1.13800
C289        C  0.68119355  0.66048821  0.28285202     1.04500
O290        O  0.78974424  0.71094089  0.28669755    -0.95100
O291        O  0.78455374  0.75053705  0.21539655    -0.90800
O292        O  0.78658315  0.79984042  0.24168426    -0.84000
C293        C  0.79853383  0.77988289  0.21843012     1.11200
O294        O  0.61906726  0.72273788  0.15715067    -0.97000
Zr295      Zr  0.66345336  0.76157995  0.18154814     1.88900
O296        O  0.73324005  0.83192199  0.17602344    -0.73700
O297        O  0.75384393  0.67770950  0.21479241    -0.53000
O298        O  0.69241405  0.72399951  0.13963720    -0.97600
O299        O  0.62105429  0.79042677  0.14175561    -0.54900
O300        O  0.70104938  0.79488514  0.14332748    -0.74200
C301        C  0.72310427  0.81927054  0.14619999     0.98100
O302        O  0.76472375  0.86526607  0.24423684    -0.63000
O303        O  0.60410153  0.86138889  0.30086537    -0.57800
O304        O  0.69774461  0.86793290  0.25823538    -0.94500
O305        O  0.64455324  0.87122538  0.23104258    -0.92900
O306        O  0.66708217  0.81660500  0.37376347    -0.93300
O307        O  0.73711864  0.82106122  0.35396888    -0.92100
C308        C  0.67720113  0.88241021  0.23580874     1.17000
H309        H  0.61923069  0.77692616  0.32352725     0.32900
H310        H  0.76250316  0.77919161  0.29429223     0.43800
H311        H  0.66201582  0.82953073  0.19269909     0.37300
H312        H  0.67406480  0.69870964  0.21024630     0.33800
H313        H  0.76322701  0.75406515  0.35347695     0.25600
H314        H  0.75458779  0.65834059  0.23108695     0.31500
H315        H  0.68171948  0.72983736  0.11608888     0.37400
H316        H  0.64317502  0.80646135  0.37918949     0.31900
H317        H  0.59133660  0.84945227  0.32025784     0.30700
H318        H  0.56390478  0.85515767  0.22754103     0.32400
H319        H  0.62596986  0.78115815  0.11780496     0.31400
H320        H  0.74059844  0.83729125  0.33438313     0.35400
H321        H  0.78231342  0.85967999  0.26349719     0.28100
H322        H  0.59315435  0.66523082  0.28754214     0.32400
H323        H  0.60546624  0.71459682  0.17818514     0.35200
H324        H  0.62728152  0.86878055  0.31193530     0.27800
H325        H  0.77914380  0.86603525  0.22201408     0.40700
H326        H  0.79701080  0.68863669  0.27840507     0.30700
H327        H  0.74080097  0.76137773  0.38807382     0.38400
H328        H  0.62998691  0.81354100  0.14030089     0.30200
H329        H  0.73283623  0.67340919  0.19876069     0.30300
H330        H  0.58780359  0.67233006  0.24649872     0.30500
C331        C  0.09765632  0.17202506  0.02543170     0.79700
N332        N  0.11868288  0.16855232  0.99634141    -0.78600
C333        C  0.11039599  0.14761572  0.96952708     0.82200
N334        N  0.07929111  0.12878663  0.97244213    -0.78500
C335        C  0.05656596  0.13175579  0.00162559     0.82300
N336        N  0.06616827  0.15365433  0.02828818    -0.80200
Zr337      Zr  0.13755718  0.21538100  0.77623625     2.17500
O338        O  0.10081395  0.22563361  0.82897255    -0.51800
O339        O  0.11891187  0.15927113  0.76910047    -0.75000
O340        O  0.08411411  0.20613403  0.74167831    -0.81800
O341        O  0.21692551  0.19106624  0.83139888    -0.83500
O342        O  0.06313899  0.25607718  0.73178423    -0.79200
O343        O  0.15654258  0.18077269  0.82312425    -0.90800
O344        O  0.14895330  0.14057498  0.72028911    -0.76800
O345        O  0.13440526  0.21952429  0.71631307    -0.86300
O346        O  0.19112408  0.18888291  0.75611692    -0.86000
O347        O  0.12647171  0.27264964  0.76198513    -0.72700
O348        O  0.18641958  0.24811527  0.79949920    -0.84800
Zr349      Zr  0.22163894  0.27607638  0.69376016     2.26400
Zr350      Zr  0.11935127  0.27236207  0.69753694     2.06300
Zr351      Zr  0.24036677  0.22258994  0.77676052     2.10000
Zr352      Zr  0.17997990  0.18805633  0.69351713     1.78800
O353        O  0.27712134  0.23824047  0.82837882    -0.93600
O354        O  0.13436020  0.17001971  0.65017765    -0.41500
O355        O  0.23176461  0.21975646  0.71246753    -0.78100
O356        O  0.17083932  0.24380502  0.67232815    -0.96800
O357        O  0.17013689  0.30438602  0.71724651    -0.90100
O358        O  0.23134250  0.27907899  0.75707599    -0.92900
C359        C  0.12839478  0.13645008  0.74756033     1.00800
C360        C  0.18588777  0.17776850  0.84090503     1.13800
C361        C  0.05922917  0.22709708  0.74590680     1.04500
O362        O  0.08970298  0.25207850  0.64349653    -0.95100
O363        O  0.14495032  0.31778818  0.65765839    -0.90800
O364        O  0.19649932  0.29429974  0.63859840    -0.84000
C365        C  0.17388824  0.31798035  0.63777861     1.11200
O366        O  0.14686123  0.31010716  0.83712669    -0.97000
Zr367      Zr  0.17828951  0.30444103  0.78036345     1.88900
O368        O  0.24378252  0.33033708  0.71016132    -0.73700
O369        O  0.07250443  0.31503385  0.69457295    -0.53000
O370        O  0.13498595  0.35009573  0.77951540    -0.97600
O371        O  0.22021643  0.32186783  0.82757620    -0.54900
O372        O  0.20968911  0.35135569  0.75492047    -0.74200
C373        C  0.23341964  0.35419077  0.73021016     0.98100
O374        O  0.25754102  0.29435293  0.64277398    -0.63000
O375        O  0.27947490  0.17427325  0.77042173    -0.57800
O376        O  0.27613512  0.24406538  0.69526647    -0.94500
O377        O  0.29558026  0.25047692  0.75042814    -0.92900
O378        O  0.22130496  0.14089311  0.69161258    -0.93300
O379        O  0.21439643  0.18475192  0.63820778    -0.92100
C380        C  0.30000284  0.25513386  0.71656103     1.17000
H381        H  0.19386919  0.16666832  0.76543296     0.32900
H382        H  0.16860390  0.24279868  0.64663106     0.43800
H383        H  0.25213391  0.29265229  0.76309117     0.37300
H384        H  0.10522739  0.28109600  0.77402099     0.33800
H385        H  0.14188827  0.18018170  0.62727430     0.25600
H386        H  0.08510945  0.33563958  0.70188468     0.31500
H387        H  0.12150083  0.34746368  0.75671886     0.37400
H388        H  0.20907223  0.12473787  0.67567895     0.31900
H389        H  0.29651196  0.18029497  0.75105220     0.30700
H390        H  0.26607520  0.25916044  0.83678528     0.32400
H391        H  0.24496287  0.31957038  0.81755882     0.31400
H392        H  0.22648815  0.20659574  0.63597751     0.35400
H393        H  0.27702273  0.30873492  0.65247604     0.28100
H394        H  0.08176170  0.20827897  0.82867772     0.32400
H395        H  0.14678233  0.28748671  0.84746706     0.35200
H396        H  0.29472586  0.17419790  0.79234004     0.27800
H397        H  0.26989174  0.27439439  0.63352513     0.40700
H398        H  0.09066318  0.27109001  0.62671647     0.30700
H399        H  0.13902209  0.14603459  0.64705693     0.38400
H400        H  0.21877500  0.30424381  0.84598114     0.30200
H401        H  0.06753605  0.31811017  0.66874772     0.30300
H402        H  0.08798094  0.24676076  0.82439607     0.30500
Zr403      Zr  0.11698255  0.78014991  0.78865749     2.17500
O404        O  0.05652236  0.78906689  0.81344535    -0.51800
O405        O  0.12501481  0.83438748  0.81520194    -0.75000
O406        O  0.11297533  0.75647313  0.84729804    -0.81800
O407        O  0.09406892  0.82831750  0.70715174    -0.83500
O408        O  0.17121095  0.75441270  0.86325798    -0.79200
O409        O  0.07201648  0.79081302  0.74360004    -0.90800
O410        O  0.18411837  0.84992907  0.80987175    -0.76800
O411        O  0.17849411  0.77894999  0.80913946    -0.86300
O412        O  0.15191219  0.81334794  0.74810492    -0.86000
O413        O  0.13236885  0.72204090  0.79132134    -0.72700
O414        O  0.10744272  0.75591131  0.73085278    -0.84800
Zr415      Zr  0.21981289  0.72944214  0.71299543     2.26400
Zr416      Zr  0.19483827  0.72163820  0.81156702     2.06300
Zr417      Zr  0.14277261  0.78903952  0.68978386     2.10000
Zr418      Zr  0.21298365  0.81109628  0.76896874     1.78800
O419        O  0.09341483  0.78206231  0.64667552    -0.93600
O420        O  0.25777916  0.81385138  0.81715061    -0.41500
O421        O  0.20513975  0.78745232  0.71059275    -0.78100
O422        O  0.23066265  0.75397683  0.77057127    -0.96800
O423        O  0.18552365  0.69717587  0.75401941    -0.90100
O424        O  0.15851865  0.73067452  0.69145065    -0.92900
C425        C  0.15153823  0.85435363  0.82135105     1.00800
C426        C  0.07100586  0.82005586  0.73118181     1.13800
C427        C  0.13814637  0.76401223  0.86920628     1.04500
O428        O  0.24598245  0.72111967  0.85332689    -0.95100
O429        O  0.24097714  0.67974154  0.79299839    -0.90800
O430        O  0.26807347  0.70289281  0.74485772    -0.84000
C431        C  0.26540471  0.68007251  0.76823473     1.11200
O432        O  0.06071537  0.69497436  0.74972810    -0.97000
Zr433      Zr  0.12457410  0.69872721  0.73272021     1.88900
O434        O  0.20960132  0.67696465  0.68307626    -0.73700
O435        O  0.16950617  0.67541633  0.84526762    -0.53000
O436        O  0.10909358  0.64661259  0.76180889    -0.97600
O437        O  0.09017680  0.69149148  0.67737884    -0.54900
O438        O  0.15728540  0.65403501  0.70329888    -0.74200
C439        C  0.18733356  0.65261831  0.68596797     0.98100
O440        O  0.27985761  0.71999052  0.68748746    -0.63000
O441        O  0.16250986  0.83916667  0.65904956    -0.57800
O442        O  0.22785168  0.76289135  0.66021898    -0.94500
O443        O  0.17310354  0.76806153  0.63561433    -0.92900
O444        O  0.21869558  0.86644580  0.74353066    -0.93300
O445        O  0.27384531  0.82116826  0.74579593    -0.92100
C446        C  0.20655884  0.75877188  0.63372583     1.17000
H447        H  0.14427709  0.83624543  0.74826676     0.32900
H448        H  0.25608643  0.75315173  0.77732948     0.43800
H449        H  0.15621263  0.72009424  0.66844778     0.37300
H450        H  0.11707749  0.70984861  0.80764564     0.33800
H451        H  0.25984038  0.83774866  0.82275453     0.25600
H452        H  0.19055719  0.66605927  0.85854507     0.31500
H453        H  0.12538954  0.64557832  0.78296546     0.37400
H454        H  0.20322626  0.86604513  0.72178023     0.31900
H455        H  0.18942688  0.83881212  0.66094350     0.30700
H456        H  0.09676849  0.75937814  0.63723280     0.32400
H457        H  0.07208826  0.70969680  0.67730967     0.31400
H458        H  0.27725990  0.80399779  0.72727581     0.35400
H459        H  0.27532472  0.70914702  0.66422677     0.28100
H460        H  0.05968530  0.80581380  0.83245539     0.32400
H461        H  0.05902865  0.70736875  0.77244086     0.35200
H462        H  0.15737038  0.83491431  0.63347270     0.27800
H463        H  0.28982322  0.74215370  0.68170262     0.40700
H464        H  0.26607158  0.73211181  0.84031988     0.30700
H465        H  0.24535206  0.80407157  0.83808476     0.38400
H466        H  0.07561962  0.67113746  0.68121173     0.30200
H467        H  0.15428455  0.68583626  0.86385276     0.30300
H468        H  0.04956980  0.76832420  0.82584284     0.30500
Zr469      Zr  0.72538724  0.24522182  0.81434881     2.17500
O470        O  0.76315970  0.23586993  0.86744926    -0.51800
O471        O  0.76073413  0.19535756  0.79948638    -0.75000
O472        O  0.69622542  0.21702407  0.86251797    -0.81800
O473        O  0.79861267  0.29084976  0.77194044    -0.83500
O474        O  0.64597389  0.19357495  0.83821038    -0.79200
O475        O  0.77001738  0.28750027  0.82318420    -0.90800
O476        O  0.74057720  0.17599826  0.74630689    -0.76800
O477        O  0.68297676  0.21320197  0.78106533    -0.86300
O478        O  0.74455250  0.25015575  0.75358266    -0.86000
O479        O  0.66605171  0.26758815  0.82795292    -0.72700
O480        O  0.72363693  0.30362198  0.80050217    -0.84800
Zr481      Zr  0.64223122  0.29783130  0.71809360     2.26400
Zr482      Zr  0.62353794  0.23569249  0.79284655     2.06300
Zr483      Zr  0.74252059  0.30865196  0.73874384     2.10000
Zr484      Zr  0.70215137  0.21802105  0.72077168     1.78800
O485        O  0.77677858  0.35909983  0.75092850    -0.93600
O486        O  0.66846323  0.16616849  0.71561923    -0.41500
O487        O  0.70086975  0.27553925  0.70457749    -0.78100
O488        O  0.64268982  0.23881088  0.73130098    -0.96800
O489        O  0.62217920  0.29385511  0.77844023    -0.90100
O490        O  0.68353329  0.33099598  0.75209653    -0.92900
C491        C  0.75927286  0.17301075  0.77498739     1.00800
C492        C  0.79878931  0.28324967  0.80541948     1.13800
C493        C  0.67293882  0.19375854  0.86094846     1.04500
O494        O  0.59043290  0.18777512  0.77024749    -0.95100
O495        O  0.56821614  0.26383975  0.76529043    -0.90800
O496        O  0.58933254  0.26513075  0.71028070    -0.84000
C497        C  0.56383573  0.27068331  0.73168042     1.11200
O498        O  0.68064715  0.33148453  0.87526150    -0.97000
Zr499      Zr  0.66407910  0.32539553  0.81246480     1.88900
O500        O  0.61138660  0.34956137  0.73097807    -0.73700
O501        O  0.58124047  0.23618346  0.84277864    -0.53000
O502        O  0.60943069  0.32438769  0.84909139    -0.97600
O503        O  0.69468179  0.37663294  0.82941984    -0.54900
O504        O  0.62757793  0.36940119  0.78527532    -0.74200
C505        C  0.61100296  0.37204636  0.75508136     0.98100
O506        O  0.61018004  0.31460717  0.66359645    -0.63000
O507        O  0.78131210  0.29720576  0.68772142    -0.57800
O508        O  0.67433307  0.31665129  0.66662720    -0.94500
O509        O  0.71911322  0.34749607  0.69035277    -0.92900
O510        O  0.75322798  0.20851000  0.68097464    -0.93300
O511        O  0.68196777  0.21230327  0.65903685    -0.92100
C512        C  0.69354664  0.34284759  0.66668517     1.17000
H513        H  0.76859734  0.24106899  0.75002552     0.32900
H514        H  0.62800347  0.22409789  0.71682215     0.43800
H515        H  0.68256180  0.35402565  0.74507892     0.37300
H516        H  0.66012341  0.26570360  0.85297431     0.33800
H517        H  0.68568476  0.15052152  0.70440023     0.25600
H518        H  0.55971681  0.24860541  0.83395563     0.31500
H519        H  0.58895284  0.32806203  0.83218796     0.37400
H520        H  0.76257084  0.23094103  0.67541683     0.31900
H521        H  0.76477806  0.29827295  0.66673385     0.30700
H522        H  0.80152678  0.35460013  0.74175306     0.32400
H523        H  0.67494987  0.39145045  0.83764204     0.31400
H524        H  0.66444646  0.23068012  0.65535583     0.35400
H525        H  0.60299494  0.29392483  0.65126266     0.28100
H526        H  0.76327076  0.21178567  0.87250438     0.32400
H527        H  0.69833386  0.31344613  0.88001028     0.35200
H528        H  0.79696158  0.31707232  0.68542215     0.27800
H529        H  0.58709458  0.32490335  0.67130985     0.40700
H530        H  0.59178819  0.17127344  0.78984435     0.30700
H531        H  0.66599448  0.15803937  0.74048085     0.38400
H532        H  0.70277768  0.38648764  0.80655195     0.30200
H533        H  0.57263746  0.21299610  0.84482349     0.30300
H534        H  0.75035865  0.24621802  0.88777720     0.30500
Zr535      Zr  0.70204024  0.81028009  0.80257342     2.17500
O536        O  0.68750375  0.82600708  0.86369318    -0.51800
O537        O  0.75430268  0.84603069  0.79610096    -0.75000
O538        O  0.74702530  0.79134187  0.84289836    -0.81800
O539        O  0.66866737  0.87902738  0.75022739    -0.83500
O540        O  0.75667365  0.73593443  0.83623865    -0.79200
O541        O  0.67254347  0.86274484  0.80720864    -0.90800
O542        O  0.78397698  0.82724571  0.74730711    -0.76800
O543        O  0.74179334  0.77097562  0.77633394    -0.86300
O544        O  0.70714935  0.82619297  0.74141564    -0.86000
O545        O  0.67690657  0.75672069  0.81501978    -0.72700
O546        O  0.64060138  0.81048084  0.78119717    -0.84800
Zr547      Zr  0.65960537  0.73395004  0.70306057     2.26400
Zr548      Zr  0.71594319  0.71719216  0.78596235     2.06300
Zr549      Zr  0.64587442  0.82656052  0.71930525     2.10000
Zr550      Zr  0.74669516  0.78694212  0.71572033     1.78800
O551        O  0.59161781  0.86052343  0.72628032    -0.93600
O552        O  0.80274697  0.75537739  0.72356043    -0.41500
O553        O  0.68593426  0.78713801  0.69117466    -0.78100
O554        O  0.72138335  0.73289505  0.72398732    -0.96800
O555        O  0.65495771  0.71729803  0.76377873    -0.90100
O556        O  0.62003328  0.77283927  0.73095573    -0.92900
C557        C  0.78113390  0.84649693  0.77438619     1.00800
C558        C  0.67737976  0.88477416  0.78345533     1.13800
C559        C  0.76329647  0.76449606  0.85088797     1.04500
O560        O  0.77012232  0.68679189  0.76810828    -0.95100
O561        O  0.68433093  0.66664846  0.76052971    -0.90800
O562        O  0.68348652  0.67891620  0.70232215    -0.84000
C563        C  0.67694633  0.65882017  0.72760147     1.11200
O564        O  0.60296771  0.77665236  0.85106282    -0.97000
Zr565      Zr  0.61619002  0.75608768  0.79143611     1.88900
O566        O  0.60541923  0.70037806  0.70934976    -0.73700
O567        O  0.70986236  0.68060839  0.83740495    -0.53000
O568        O  0.60345128  0.71073650  0.83259657    -0.97600
O569        O  0.55623155  0.78202818  0.79024742    -0.54900
O570        O  0.57833358  0.71571906  0.76089898    -0.74200
C571        C  0.57958935  0.69855193  0.73211644     0.98100
O572        O  0.67396336  0.71813331  0.64184993    -0.63000
O573        O  0.66465680  0.85976977  0.66824564    -0.57800
O574        O  0.61746300  0.75238107  0.65952393    -0.94500
O575        O  0.60406065  0.80679296  0.66945441    -0.92900
O576        O  0.76954925  0.82834672  0.67396656    -0.93300
O577        O  0.76224424  0.76988227  0.65535738    -0.92100
C578        C  0.59915679  0.77853374  0.65323082     1.17000
H579        H  0.71866572  0.84739877  0.73778592     0.32900
H580        H  0.73583631  0.71695035  0.71112131     0.43800
H581        H  0.59547738  0.77133686  0.72178998     0.37300
H582        H  0.67663264  0.75261499  0.84045816     0.33800
H583        H  0.82036371  0.76623675  0.70737345     0.25600
H584        H  0.68322472  0.67856483  0.84083999     0.31500
H585        H  0.57681574  0.71180925  0.83651598     0.37400
H586        H  0.75874559  0.84956605  0.68181739     0.31900
H587        H  0.65221034  0.88130116  0.67153563     0.30700
H588        H  0.57453842  0.84623682  0.73972260     0.32400
H589        H  0.54126690  0.76815411  0.80635841     0.31400
H590        H  0.75449791  0.74643192  0.65381553     0.35400
H591        H  0.67907533  0.73927349  0.62932261     0.28100
H592        H  0.70930870  0.83787203  0.87271613     0.32400
H593        H  0.61313191  0.79938052  0.85142475     0.35200
H594        H  0.69068932  0.86465454  0.67294403     0.27800
H595        H  0.69799183  0.70704942  0.64320304     0.40700
H596        H  0.76254681  0.66324029  0.76829227     0.30700
H597        H  0.81148101  0.76111255  0.74785171     0.38400
H598        H  0.54632138  0.77748013  0.76609451     0.30200
H599        H  0.71754012  0.65856614  0.82868322     0.30300
H600        H  0.68689559  0.80501302  0.87745250     0.30500
C601        C  0.44810417  0.62739788  0.69446567     0.79700
N602        N  0.44513805  0.61245547  0.66219556    -0.78600
C603        C  0.41273659  0.60016965  0.65066043     0.82200
N604        N  0.38261820  0.60276995  0.67188838    -0.78500
C605        C  0.38517185  0.61822288  0.70436520     0.82300
N606        N  0.41802628  0.63021628  0.71496342    -0.80200
C607        C  0.27502060  0.47711182  0.66759790     0.79700
N608        N  0.30116493  0.47727196  0.64218912    -0.78600
C609        C  0.30356989  0.50252935  0.61854739     0.82200
N610        N  0.28001785  0.52837258  0.62062080    -0.78500
C611        C  0.25397425  0.52899982  0.64636067     0.82300
N612        N  0.25163959  0.50315075  0.66960258    -0.80200
C613        C  0.46114704  0.35440974  0.65783908     0.79700
N614        N  0.46269413  0.37693379  0.63022516    -0.78600
C615        C  0.43119378  0.38658764  0.61267213     0.82200
N616        N  0.39853063  0.37220908  0.62288920    -0.78500
C617        C  0.39796657  0.34934458  0.65040450     0.82300
N618        N  0.42907498  0.34143052  0.66710717    -0.80200
C619        C  0.56277797  0.49529677  0.69301945     0.79700
N620        N  0.58179217  0.52287025  0.70209604    -0.78600
C621        C  0.58158613  0.55036967  0.68111113     0.82200
N622        N  0.56187801  0.55003627  0.64959312    -0.78500
C623        C  0.54162858  0.52248918  0.64060101     0.82300
N624        N  0.54241479  0.49568220  0.66261325    -0.80200
C625        C  0.46802724  0.39422495  0.32447424     0.79700
N626        N  0.43730732  0.39228114  0.30475029    -0.78600
C627        C  0.40589242  0.40706358  0.31430294     0.82200
N628        N  0.40551281  0.42517208  0.34555148    -0.78500
C629        C  0.43658247  0.42795330  0.36656848     0.82300
N630        N  0.46772815  0.41173143  0.35589533    -0.80200
C631        C  0.60053877  0.50127953  0.36816630     0.79700
N632        N  0.61732501  0.52887159  0.35589534    -0.78600
C633        C  0.60644290  0.55964451  0.36535589     0.82200
N634        N  0.57735281  0.56308227  0.38796169    -0.78500
C635        C  0.56008486  0.53524790  0.40082858     0.82300
N636        N  0.57187653  0.50469943  0.39064080    -0.80200
C637        C  0.45582554  0.69402541  0.38229609     0.79700
N638        N  0.45507420  0.66275255  0.39712219    -0.78600
C639        C  0.42549724  0.65257221  0.41688747     0.82200
N640        N  0.39643906  0.67398706  0.42030289    -0.78500
C641        C  0.39681866  0.70486997  0.40461665     0.82300
N642        N  0.42683662  0.71419453  0.38640203    -0.80200
C643        C  0.26670732  0.49777495  0.35318735     0.79700
N644        N  0.25921754  0.52464190  0.33275935    -0.78600
C645        C  0.27809409  0.55335496  0.33594475     0.82200
N646        N  0.30614005  0.55504803  0.36062169    -0.78500
C647        C  0.31380297  0.52790418  0.38195798     0.82300
N648        N  0.29379448  0.49978601  0.37791054    -0.80200
C649        C  0.57120619  0.67427625  0.49293814     0.79700
N650        N  0.55169535  0.64629758  0.49819543    -0.78600
C651        C  0.53023999  0.64298576  0.52733642     0.82200
N652        N  0.52778594  0.66875600  0.55134830    -0.78500
C653        C  0.54795968  0.69714953  0.54620598     0.82300
N654        N  0.56938739  0.69906690  0.51700100    -0.80200
C655        C  0.61273824  0.38554976  0.48183449     0.79700
N656        N  0.58104166  0.40367476  0.48097461    -0.78600
C657        C  0.56950467  0.42036546  0.51093378     0.82200
N658        N  0.59038526  0.41805520  0.54187851    -0.78500
C659        C  0.62191123  0.39933992  0.54280144     0.82300
N660        N  0.63195808  0.38361645  0.51259497    -0.80200
C661        C  0.24553204  0.63131243  0.47921716     0.79700
N662        N  0.23681740  0.65490222  0.50320760    -0.78600
C663        C  0.25626415  0.65890405  0.53375350     0.82200
N664        N  0.28603177  0.63895946  0.54002486    -0.78500
C665        C  0.29434397  0.61438974  0.51603318     0.82300
N666        N  0.27417027  0.61119068  0.48581971    -0.80200
C667        C  0.27466957  0.35649908  0.47371696     0.79700
N668        N  0.30483319  0.37683123  0.47278616    -0.78600
C669        C  0.31195533  0.39814221  0.50080339     0.82200
N670        N  0.28815326  0.39844264  0.52943432    -0.78500
C671        C  0.25826808  0.37780917  0.53014246     0.82300
N672        N  0.25252843  0.35761669  0.50220412    -0.80200
O673        O  0.84114840  0.95269642  0.99095402    -0.87000
O674        O  0.04282019  0.96877870  0.99960093    -0.87100
O675        O  0.94997821  0.93633561  0.92436234    -0.88800
O676        O  0.94323814  0.91231123  0.03924610    -0.87600
O677        O  0.93541935  0.94250804  0.09070234    -0.87200
O678        O  0.94615412  0.98410112  0.89082395    -0.88500
O679        O  0.00374800  0.92685259  0.98387916    -0.87000
O680        O  0.88895557  0.91876886  0.97619831    -0.86600
Zr681      Zr  0.94299645  0.95101387  0.98827343     2.84300
O682        O  0.97517948  0.97940560  0.03352688    -1.08600
O683        O  0.90390051  0.98813917  0.95827948    -1.09300
C684        C  0.85503764  0.92427525  0.98192065     1.06100
C685        C  0.03578047  0.93835501  0.99079952     1.06100
C686        C  0.94995415  0.95245606  0.89428493     1.09100
C687        C  0.93919147  0.91452591  0.07350051     1.06800
H688        H  0.99232706  0.98242835  0.94573244     0.32400
O689        O  0.97601700  0.99338897  0.96191130    -1.29500
H690        H  0.88795869  0.95756607  0.04102084     0.32100
O691        O  0.90218812  0.97478083  0.02980882    -1.31200
O692        O  0.03726394  0.07600106  0.00449966    -0.87000
O693        O  0.82582376  0.06237324  0.00191808    -0.88500
O694        O  0.99869392  0.03316661  0.90434268    -0.87000
O695        O  0.99569991  0.00048624  0.10594300    -0.87100
O696        O  0.87230967  0.99908689  0.10123656    -0.86800
O697        O  0.87885897  0.02274483  0.89972158    -0.86600
O698        O  0.92835698  0.12205060  0.95997651    -0.87000
O699        O  0.92936680  0.10059918  0.08062886    -0.86400
O700        O  0.93562395  0.08922417  0.91039385    -0.87500
O701        O  0.93359411  0.05294663  0.11482063    -0.86700
O702        O  0.04082032  0.02305020  0.94885034    -0.87100
O703        O  0.83384467  0.00718750  0.93862867    -0.86800
O704        O  0.82984000  0.00313487  0.05590075    -0.86400
O705        O  0.03840132  0.01606611  0.06452230    -0.86800
O706        O  0.99208971  0.11485861  0.01209691    -0.87100
O707        O  0.86432599  0.10570487  0.01587458    -0.88500
Zr708      Zr  0.00905563  0.02134748  0.00578703     2.83100
Zr709      Zr  0.86238563  0.01081904  0.99876008     2.83500
Zr710      Zr  0.93772922  0.03068181  0.93106435     2.84100
Zr711      Zr  0.93477343  0.00351168  0.07491846     2.83400
Zr712      Zr  0.93005295  0.08536345  0.01507575     2.84200
O713        O  0.89724300  0.04051053  0.04151802    -1.09000
O714        O  0.97043369  0.05900457  0.97553637    -1.08600
C715        C  0.02629079  0.10629838  0.00678973     1.06100
C716        C  0.83185362  0.09338139  0.00918598     1.08700
C717        C  0.03132202  0.02683167  0.91582206     1.06300
C718        C  0.02899788  0.00747643  0.09650914     1.06600
C719        C  0.83882561  0.00004689  0.08934126     1.06200
C720        C  0.84584180  0.01322884  0.90675654     1.05800
C721        C  0.93178749  0.11798725  0.92543487     1.06200
C722        C  0.93151007  0.08505370  0.11139758     1.05700
H723        H  0.88054894  0.06865103  0.95851761     0.32400
O724        O  0.89669036  0.05421519  0.97182445    -1.30100
H725        H  0.98255899  0.05839923  0.06332166     0.32400
O726        O  0.96821239  0.04647256  0.04587984    -1.31500
O727        O  0.41334557  0.59719127  0.58712237    -0.87000
O728        O  0.43522803  0.41152358  0.55230052    -0.87100
O729        O  0.36550445  0.49814597  0.60450385    -0.88800
O730        O  0.48412208  0.51019786  0.61442447    -0.87600
O731        O  0.52957524  0.52783675  0.57704880    -0.87200
O732        O  0.32399629  0.50783908  0.55940327    -0.88500
O733        O  0.42943576  0.44517763  0.60138640    -0.87000
O734        O  0.41561109  0.54938936  0.62070658    -0.86600
Zr735      Zr  0.42670883  0.50346229  0.58028736     2.84300
O736        O  0.46899911  0.48057681  0.54071490    -1.08600
O737        O  0.38743208  0.53916775  0.54834406    -1.09300
C738        C  0.41259619  0.58106416  0.61718387     1.06100
C739        C  0.43195947  0.41611242  0.58683409     1.06100
C740        C  0.33287400  0.50270147  0.59236652     1.09100
C741        C  0.51699340  0.52066904  0.60851008     1.06800
H742        H  0.38095948  0.45778288  0.54743311     0.32400
O743        O  0.39548305  0.47429787  0.53543430    -1.29500
H744        H  0.47119511  0.56046889  0.57253758     0.32100
O745        O  0.45933812  0.54742986  0.55429951    -1.31200
O746        O  0.43903641  0.43316203  0.43167210    -0.87000
O747        O  0.41912166  0.62173419  0.47140712    -0.88500
O748        O  0.32936062  0.45500831  0.50052031    -0.87000
O749        O  0.54073115  0.47388719  0.51594024    -0.87100
O750        O  0.52146922  0.58443152  0.52172417    -0.86800
O751        O  0.32083949  0.56153836  0.51020401    -0.86600
O752        O  0.37543412  0.53514922  0.40353815    -0.87000
O753        O  0.49616085  0.53682549  0.41305876    -0.86400
O754        O  0.33099819  0.51760013  0.44223547    -0.87500
O755        O  0.53701710  0.53364096  0.45988206    -0.86700
O756        O  0.37617896  0.41742070  0.49505462    -0.87100
O757        O  0.35750668  0.60488677  0.52707224    -0.86800
O758        O  0.47248731  0.61806947  0.53349353    -0.86400
O759        O  0.50375376  0.42971556  0.50093658    -0.86800
O760        O  0.43444549  0.48074858  0.39746725    -0.87100
O761        O  0.43270209  0.59188596  0.42098483    -0.88500
Zr762      Zr  0.43740731  0.44848769  0.49708773     2.83100
Zr763      Zr  0.41967330  0.58319559  0.52306733     2.83500
Zr764      Zr  0.35676185  0.51054323  0.50301852     2.84100
Zr765      Zr  0.50294189  0.52502098  0.51574645     2.83400
Zr766      Zr  0.43368514  0.53069203  0.43730858     2.84200
O767        O  0.46303999  0.56018949  0.48367864    -1.09000
O768        O  0.40027412  0.48697211  0.46477796    -1.08600
C769        C  0.43663720  0.44857803  0.40086698     1.06100
C770        C  0.42585836  0.61980190  0.43747975     1.08700
C771        C  0.34138726  0.42493420  0.49817596     1.06300
C772        C  0.53563645  0.44260179  0.50921007     1.06600
C773        C  0.50674844  0.61307357  0.52884583     1.06200
C774        C  0.32619671  0.59212287  0.51936852     1.05800
C775        C  0.34193623  0.52775614  0.41112164     1.06200
C776        C  0.52902311  0.53662177  0.42624020     1.05700
H777        H  0.37455729  0.56839105  0.46394821     0.32400
O778        O  0.39056476  0.55354822  0.47687329    -1.30100
H779        H  0.48863484  0.48405698  0.45575164     0.32400
O780        O  0.47095235  0.49378971  0.47157152    -1.31500
C781        C  0.57016074  0.77207694  0.62623978    -0.05900
C782        C  0.57831470  0.77829058  0.59042716    -0.33400
C783        C  0.56795766  0.75574222  0.56353968     0.35900
C784        C  0.54937020  0.72573911  0.57224252    -0.06300
C785        C  0.53631793  0.72240757  0.60723861    -0.33300
C786        C  0.54586453  0.74562073  0.63381216     0.35800
H787        H  0.59659762  0.79842745  0.58369396     0.16100
O788        O  0.57796099  0.76262763  0.52903385    -0.60800
H789        H  0.52109808  0.70050315  0.61480387     0.16200
O790        O  0.53632339  0.73909294  0.66848281    -0.60900
H791        H  0.51553472  0.75405280  0.67336455     0.43200
H792        H  0.60458307  0.75845341  0.52811065     0.43100
C793        C  0.65605600  0.62807194  0.71724022    -0.05900
C794        C  0.63091492  0.61367172  0.74079374    -0.33400
C795        C  0.60579399  0.58944884  0.72894555     0.35900
C796        C  0.60502098  0.57898551  0.69278810    -0.06300
C797        C  0.63046607  0.59292836  0.66939329    -0.33300
C798        C  0.65586796  0.61676919  0.68125222     0.35800
H799        H  0.62962527  0.62216474  0.76817789     0.16100
O800        O  0.58151072  0.57652875  0.75294637    -0.60800
H801        H  0.63128484  0.58473250  0.64188024     0.16200
O802        O  0.68016629  0.62925435  0.65698633    -0.60900
H803        H  0.70294657  0.61652725  0.66101302     0.43200
H804        H  0.56123990  0.59276241  0.75376044     0.43100
C805        C  0.54828245  0.67631330  0.72428767    -0.05900
C806        C  0.51838251  0.67634129  0.74748479    -0.33400
C807        C  0.48646601  0.65922956  0.73913103     0.35900
C808        C  0.48334219  0.64196469  0.70646228    -0.06300
C809        C  0.51416191  0.63988144  0.68443345    -0.33300
C810        C  0.54641646  0.65670303  0.69311576     0.35800
H811        H  0.51914368  0.69045444  0.77204880     0.16100
O812        O  0.45817369  0.66068005  0.76280307    -0.60800
H813        H  0.51316072  0.62583165  0.65983595     0.16200
O814        O  0.57581729  0.65372422  0.67091609    -0.60900
H815        H  0.57000932  0.66752754  0.64968085     0.43200
H816        H  0.46271137  0.64236363  0.78000225     0.43100
C817        C  0.68339717  0.36764013  0.63819117    -0.05900
C818        C  0.69795671  0.36422148  0.60398609    -0.33400
C819        C  0.67981053  0.37692106  0.57349592     0.35900
C820        C  0.64514274  0.39288309  0.57613254    -0.06300
C821        C  0.63215772  0.39876454  0.61084350    -0.33300
C822        C  0.65109714  0.38663192  0.64141302     0.35800
H823        H  0.72241575  0.34958376  0.60046487     0.16100
O824        O  0.69609438  0.37256478  0.54095496    -0.60800
H825        H  0.60630790  0.41122563  0.61436598     0.16200
O826        O  0.63627289  0.39136441  0.67441870    -0.60900
H827        H  0.64286141  0.41439306  0.68102933     0.43200
H828        H  0.69209802  0.34892461  0.53482971     0.43100
C829        C  0.53292913  0.28994521  0.71562434    -0.05900
C830        C  0.51816377  0.31778991  0.73272181    -0.33400
C831        C  0.49722986  0.34128520  0.71326346     0.35900
C832        C  0.49267061  0.33841861  0.67574281    -0.06300
C833        C  0.50682110  0.31030056  0.65910300    -0.33300
C834        C  0.52548584  0.28590260  0.67865210     0.35800
H835        H  0.52344159  0.32176683  0.76088662     0.16100
O836        O  0.47962736  0.36609608  0.73128171    -0.60800
H837        H  0.50107552  0.30595826  0.63105928     0.16200
O838        O  0.53767314  0.25840024  0.66087720    -0.60900
H839        H  0.51694218  0.24263637  0.66116624     0.43200
H840        H  0.49904888  0.38096451  0.74037754     0.43100
C841        C  0.59210587  0.40357599  0.74546222    -0.05900
C842        C  0.56721533  0.40362917  0.71673475    -0.33400
C843        C  0.55518411  0.43318406  0.70099626     0.35900
C844        C  0.56822915  0.46394088  0.71371058    -0.06300
C845        C  0.59063177  0.46398123  0.74446263    -0.33300
C846        C  0.60247562  0.43427230  0.76032858     0.35800
H847        H  0.55874830  0.38050080  0.70472105     0.16100
O848        O  0.53203352  0.43137702  0.67213533    -0.60800
H849        H  0.60074771  0.48711696  0.75527458     0.16200
O850        O  0.62687545  0.43575945  0.78817108    -0.60900
H851        H  0.61178854  0.43497218  0.81003520     0.43200
H852        H  0.54791367  0.42713729  0.65130121     0.43100
C853        C  0.21949701  0.73769376  0.60364689    -0.05900
C854        C  0.19456848  0.71695713  0.58611005    -0.33400
C855        C  0.20646813  0.69147425  0.56360909     0.35900
C856        C  0.24414110  0.68559663  0.55858500    -0.06300
C857        C  0.26917075  0.70716612  0.57493112    -0.33300
C858        C  0.25711729  0.73338233  0.59667146     0.35800
H859        H  0.16565614  0.71934531  0.59118491     0.16100
O860        O  0.18091292  0.67099747  0.54837878    -0.60800
H861        H  0.29808671  0.70398488  0.57046126     0.16200
O862        O  0.28252917  0.75413901  0.61167030    -0.60900
H863        H  0.27944150  0.77566233  0.59913814     0.43200
H864        H  0.16946577  0.68428421  0.52899235     0.43100
C865        C  0.29241806  0.65327373  0.76401866    -0.05900
C866        C  0.28702533  0.63073436  0.73578848    -0.33400
C867        C  0.31675290  0.61668937  0.71763239     0.35900
C868        C  0.35271408  0.62534521  0.72743737    -0.06300
C869        C  0.35761915  0.64458840  0.75863440    -0.33300
C870        C  0.32798375  0.65850639  0.77663102     0.35800
H871        H  0.25977244  0.62662094  0.72540948     0.16100
O872        O  0.31017591  0.59606723  0.68928936    -0.60800
H873        H  0.38466847  0.65113103  0.76785379     0.16200
O874        O  0.33438150  0.68070239  0.80362294    -0.60900
H875        H  0.33278803  0.66750017  0.82594644     0.43200
H876        H  0.30794245  0.61091955  0.66823743     0.43100
C877        C  0.19862354  0.62042916  0.67010687    -0.05900
C878        C  0.18560619  0.59048004  0.68450089    -0.33400
C879        C  0.20181558  0.56008548  0.67563639     0.35900
C880        C  0.23123462  0.55918042  0.65142633    -0.06300
C881        C  0.24139734  0.58871506  0.63424799    -0.33300
C882        C  0.22589653  0.61904631  0.64375511     0.35800
H883        H  0.16428702  0.59069170  0.70437781     0.16100
O884        O  0.18895935  0.53159743  0.69122339    -0.60800
H885        H  0.26321695  0.58886533  0.61489694     0.16200
O886        O  0.23833657  0.64736287  0.62763239    -0.60900
H887        H  0.26255586  0.65172734  0.63855266     0.43200
H888        H  0.19951591  0.53135839  0.71568758     0.43100
C889        C  0.18528444  0.34626293  0.61428353    -0.05900
C890        C  0.21820803  0.36273539  0.62302987    -0.33400
C891        C  0.24115174  0.37647336  0.59653917     0.35900
C892        C  0.23113191  0.37464014  0.56027030    -0.06300
C893        C  0.19580907  0.36220136  0.55222971    -0.33300
C894        C  0.17343084  0.34776498  0.57857656     0.35800
H895        H  0.22825349  0.36164189  0.65018839     0.16100
O896        O  0.27466878  0.38863300  0.60615644    -0.60800
H897        H  0.18666444  0.36092538  0.52468660     0.16200
O898        O  0.14160638  0.33246700  0.56851151    -0.60900
H899        H  0.14851923  0.30933100  0.56278173     0.43200
H900        H  0.29026286  0.36884378  0.61000360     0.43100
C901        C  0.26997576  0.44756819  0.69066019    -0.05900
C902        C  0.24084875  0.44653462  0.71490306    -0.33400
C903        C  0.23045574  0.41670349  0.73104470     0.35900
C904        C  0.24887921  0.38718375  0.72237447    -0.06300
C905        C  0.28008999  0.38900104  0.70111344    -0.33300
C906        C  0.29126728  0.41878064  0.68601929     0.35800
H907        H  0.22467902  0.46845419  0.71992452     0.16100
O908        O  0.20022602  0.41632708  0.75237959    -0.60800
H909        H  0.29463359  0.36677279  0.69408474     0.16200
O910        O  0.32146152  0.41858289  0.66461779    -0.60900
H911        H  0.34180823  0.42598098  0.68022835     0.43200
H912        H  0.20937597  0.42188686  0.77661620     0.43100
C913        C  0.32758425  0.27851131  0.70081457    -0.05900
C914        C  0.33620207  0.30853498  0.71776301    -0.33400
C915        C  0.35595036  0.33360146  0.69982500     0.35900
C916        C  0.36600554  0.33013675  0.66353395    -0.06300
C917        C  0.35773184  0.29992759  0.64679768    -0.33300
C918        C  0.33945674  0.27427540  0.66511661     0.35800
H919        H  0.32713560  0.31290161  0.74481999     0.16100
O920        O  0.36584585  0.36158729  0.71822468    -0.60800
H921        H  0.36765640  0.29528077  0.62007903     0.16200
O922        O  0.33285432  0.24508398  0.64753511    -0.60900
H923        H  0.35353459  0.23041856  0.65409182     0.43200
H924        H  0.38714260  0.35495367  0.73304632     0.43100
C925        C  0.13607665  0.14748759  0.93789782    -0.05900
C926        C  0.16714158  0.16856283  0.93870255    -0.33400
C927        C  0.18836025  0.17488673  0.90813744     0.35900
C928        C  0.17936212  0.15986753  0.87553846    -0.06300
C929        C  0.15177872  0.13511806  0.87597420    -0.33300
C930        C  0.12981489  0.12944321  0.90628964     0.35800
H931        H  0.17392012  0.18229508  0.96263841     0.16100
O932        O  0.21456244  0.19911437  0.90937674    -0.60800
H933        H  0.14432904  0.12280261  0.85127384     0.16200
O934        O  0.10120021  0.10767330  0.90385484    -0.60900
H935        H  0.08147100  0.12009529  0.89148418     0.43200
H936        H  0.23435414  0.18994751  0.92462951     0.43100
C937        C  0.62570239  0.70303542  0.39759049    -0.05900
C938        C  0.59448822  0.68282458  0.39545540    -0.33400
C939        C  0.57776693  0.67099103  0.42640460     0.35900
C940        C  0.59207206  0.67960304  0.46009377    -0.06300
C941        C  0.62465045  0.69757026  0.46218473    -0.33300
C942        C  0.64193747  0.70865070  0.43133414     0.35800
H943        H  0.58186319  0.67743703  0.36987499     0.16100
O944        O  0.54623479  0.65292845  0.42339629    -0.60800
H945        H  0.63629995  0.70382066  0.48798437     0.16200
O946        O  0.67396680  0.72593507  0.43470035    -0.60900
H947        H  0.69302650  0.70882446  0.43845364     0.43200
H948        H  0.52629914  0.66947336  0.42435681     0.43100
C949        C  0.53041441  0.74478437  0.31098555    -0.05900
C950        C  0.51131316  0.71607171  0.30000673    -0.33400
C951        C  0.48939287  0.69768187  0.32377177     0.35900
C952        C  0.48614600  0.70726784  0.35972584    -0.06300
C953        C  0.50521722  0.73583236  0.37088780    -0.33300
C954        C  0.52755397  0.75407222  0.34722823     0.35800
H955        H  0.51321060  0.70780782  0.27258084     0.16100
O956        O  0.47019532  0.67095008  0.31116731    -0.60800
H957        H  0.50227806  0.74441353  0.39811282     0.16200
O958        O  0.54684227  0.78063596  0.36007245    -0.60900
H959        H  0.56963376  0.77106954  0.37007816     0.43200
H960        H  0.44587171  0.67980396  0.30447595     0.43100
C961        C  0.66781184  0.63242347  0.30532151    -0.05900
C962        C  0.64437418  0.60956339  0.28869493    -0.33400
C963        C  0.62284167  0.58770260  0.30847225     0.35900
C964        C  0.62408002  0.58777292  0.34608062    -0.06300
C965        C  0.64791320  0.61018429  0.36320832    -0.33300
C966        C  0.66958321  0.63251378  0.34308473     0.35800
H967        H  0.64159988  0.60949206  0.25984210     0.16100
O968        O  0.59974056  0.56661281  0.29064408    -0.60800
H969        H  0.65009792  0.61008922  0.39207693     0.16200
O970        O  0.69073220  0.65537564  0.36058159    -0.60900
H971        H  0.71482066  0.64459184  0.36367024     0.43200
H972        H  0.61540573  0.54838249  0.28186625     0.43100
C973        C  0.66620487  0.32118508  0.40553906    -0.05900
C974        C  0.67107545  0.35583741  0.40360404    -0.33400
C975        C  0.65171717  0.37754636  0.42645412     0.35900
C976        C  0.62648363  0.36498325  0.45151314    -0.06300
C977        C  0.62216878  0.33047165  0.45367056    -0.33300
C978        C  0.64127434  0.30888949  0.43105071     0.35800
H979        H  0.68887102  0.36621956  0.38348402     0.16100
O980        O  0.65751051  0.41104155  0.42391719    -0.60800
H981        H  0.60427442  0.32002900  0.47368861     0.16200
O982        O  0.63473247  0.27549464  0.43362326    -0.60900
H983        H  0.65253604  0.26721051  0.45157982     0.43200
H984        H  0.67784220  0.41573526  0.44072729     0.43100
C985        C  0.61297176  0.46823150  0.35517639    -0.05900
C986        C  0.64575918  0.46635870  0.33603234    -0.33400
C987        C  0.65753258  0.43672469  0.32080849     0.35900
C988        C  0.63647400  0.40756397  0.32423951    -0.06300
C989        C  0.60430353  0.40902048  0.34454154    -0.33300
C990        C  0.59239997  0.43893794  0.35969425     0.35800
H991        H  0.66254677  0.48817824  0.33236386     0.16100
O992        O  0.68959405  0.43696372  0.30217084    -0.60800
H993        H  0.58771022  0.38705803  0.34808524     0.16200
O994        O  0.56032707  0.43919349  0.37826850    -0.60900
H995        H  0.54103138  0.44262558  0.35995451     0.43200
H996        H  0.70846533  0.42963798  0.31956814     0.43100
C997        C  0.54126473  0.32814831  0.27032812    -0.05900
C998        C  0.54625512  0.36270135  0.26749125    -0.33400
C999        C  0.52495475  0.38502998  0.28778497     0.35900
C1000       C  0.49873682  0.37300813  0.31210224    -0.06300
C1001       C  0.49415605  0.33852420  0.31494580    -0.33300
C1002       C  0.51474769  0.31638933  0.29440113     0.35800
H1003       H  0.56689246  0.37244717  0.24976178     0.16100
O1004       O  0.52813927  0.41849769  0.28194509    -0.60800
H1005       H  0.47288645  0.32866065  0.33189321     0.16200
O1006       O  0.50836282  0.28303151  0.29780522    -0.60900
H1007       H  0.49094252  0.27757301  0.27832609     0.43200
H1008       H  0.55306381  0.42447904  0.28997951     0.43100
C1009       C  0.20794311  0.66172779  0.37814076    -0.05900
C1010       C  0.18271329  0.65798888  0.40597711    -0.33400
C1011       C  0.19331011  0.64382330  0.43847444     0.35900
C1012       C  0.22938217  0.63303408  0.44331793    -0.06300
C1013       C  0.25265841  0.63167473  0.41388656    -0.33300
C1014       C  0.24248891  0.64641144  0.38158805     0.35800
H1015       H  0.15558751  0.66839317  0.40371723     0.16100
O1016       O  0.16918188  0.64319146  0.46627019    -0.60800
H1017       H  0.28032045  0.62265820  0.41696211     0.16200
O1018       O  0.26772863  0.64800454  0.35481874    -0.60900
H1019       H  0.28206754  0.66838784  0.35942917     0.43200
H1020       H  0.15751247  0.62105172  0.46502445     0.43100
C1021       C  0.23750801  0.63073204  0.26342731    -0.05900
C1022       C  0.27537860  0.62767982  0.27092446    -0.33400
C1023       C  0.28924987  0.60382141  0.29531278     0.35900
C1024       C  0.26543070  0.58179942  0.31273160    -0.06300
C1025       C  0.22778298  0.58465017  0.30495063    -0.33300
C1026       C  0.21389876  0.60860590  0.28098985     0.35800
H1027       H  0.29451403  0.64443262  0.25838472     0.16100
O1028       O  0.32608550  0.60199543  0.30139571    -0.60800
H1029       H  0.20861823  0.56820667  0.31794847     0.16200
O1030       O  0.17691376  0.61109755  0.27646623    -0.60900
H1031       H  0.17126774  0.59759510  0.25504636     0.43200
H1032       H  0.33146273  0.61975216  0.31892046     0.43100
C1033       C  0.36419994  0.72780833  0.40255806    -0.05900
C1034       C  0.36846187  0.75969434  0.38695695    -0.33400
C1035       C  0.33848099  0.77810409  0.37409308     0.35900
C1036       C  0.30311517  0.76517761  0.37691339    -0.06300
C1037       C  0.29839175  0.73601875  0.39750319    -0.33300
C1038       C  0.32838272  0.71735115  0.41008583     0.35800
H1039       H  0.39545310  0.76934606  0.38174772     0.16100
O1040       O  0.34465321  0.80612326  0.35418456    -0.60800
H1041       H  0.27135637  0.72546809  0.40007858     0.16200
O1042       O  0.32211171  0.68785420  0.42726788    -0.60900
H1043       H  0.32356322  0.67067888  0.40846963     0.43200
H1044       H  0.33744603  0.82481348  0.36975348     0.43100
C1045       C  0.11416626  0.95831600  0.19065102    -0.05900
C1046       C  0.09114451  0.94419554  0.21621897    -0.33400
C1047       C  0.10454578  0.92156705  0.24190159     0.35900
C1048       C  0.14164543  0.91134760  0.24198114    -0.06300
C1049       C  0.16499752  0.92642872  0.21719298    -0.33300
C1050       C  0.15174577  0.94998126  0.19219019     0.35800
H1051       H  0.06268611  0.95128260  0.21682270     0.16100
O1052       O  0.08061165  0.90882088  0.26636554    -0.60800
H1053       H  0.19326312  0.91881364  0.21594833     0.16200
O1054       O  0.17546441  0.96342063  0.16792720    -0.60900
H1055       H  0.19229871  0.97751140  0.18209442     0.43200
H1056       H  0.08677668  0.91991429  0.28922612     0.43100
C1057       C  0.23233568  0.28437429  0.39792702    -0.05900
C1058       C  0.27027705  0.28642782  0.40487971    -0.33400
C1059       C  0.28523031  0.31104083  0.42742729     0.35900
C1060       C  0.26223958  0.33388399  0.44437693    -0.06300
C1061       C  0.22431418  0.33120597  0.43808682    -0.33300
C1062       C  0.20944740  0.30703652  0.41538464     0.35800
H1063       H  0.28864782  0.26915012  0.39220457     0.16100
O1064       O  0.32217028  0.31220155  0.43292924    -0.60800
H1065       H  0.20576375  0.34817598  0.45105126     0.16200
O1066       O  0.17257280  0.30699821  0.40921594    -0.60900
H1067       H  0.16234839  0.29196270  0.42761134     0.43200
H1068       H  0.32668828  0.29837233  0.45445266     0.43100
C1069       C  0.37287611  0.39926990  0.29102460    -0.05900
C1070       C  0.37841086  0.38384394  0.25742008    -0.33400
C1071       C  0.34985553  0.36844380  0.23821747     0.35900
C1072       C  0.31432127  0.36826281  0.25179588    -0.06300
C1073       C  0.30798232  0.38647602  0.28342094    -0.33300
C1074       C  0.33662743  0.40193489  0.30279769     0.35800
H1075       H  0.40565518  0.38165821  0.24674751     0.16100
O1076       O  0.35777294  0.35047271  0.20821533    -0.60800
H1077       H  0.28102433  0.38646442  0.29471892     0.16200
O1078       O  0.32904746  0.41773021  0.33421486    -0.60900
H1079       H  0.33273747  0.40078339  0.35313688     0.43200
H1080       H  0.36318305  0.36716125  0.18947534     0.43100
C1081       C  0.24668131  0.46608576  0.34721840    -0.05900
C1082       C  0.25649493  0.43754341  0.36673424    -0.33400
C1083       C  0.24188933  0.40644040  0.35812932     0.35900
C1084       C  0.21668538  0.40334890  0.32979010    -0.06300
C1085       C  0.20441578  0.43223796  0.31246176    -0.33300
C1086       C  0.21905622  0.46327846  0.32083897     0.35800
H1087       H  0.27666005  0.43895320  0.38793372     0.16100
O1088       O  0.25246971  0.37923221  0.37759183    -0.60800
H1089       H  0.18462930  0.43072021  0.29091250     0.16200
O1090       O  0.20622730  0.49053489  0.30268880    -0.60900
H1091       H  0.21918019  0.49053261  0.27951343     0.43200
H1092       H  0.27616477  0.37233974  0.36747679     0.43100
C1093       C  0.14573209  0.24473709  0.09711073    -0.05900
C1094       C  0.16461753  0.21583547  0.08781103    -0.33400
C1095       C  0.14830247  0.19148905  0.06594989     0.35900
C1096       C  0.11200292  0.19509501  0.05333946    -0.06300
C1097       C  0.09341755  0.22433664  0.06163346    -0.33300
C1098       C  0.10979042  0.24885073  0.08328794     0.35800
H1099       H  0.19134364  0.21111625  0.09918880     0.16100
O1100       O  0.16737970  0.16308477  0.05869030    -0.60800
H1101       H  0.06636807  0.22853856  0.05076884     0.16200
O1102       O  0.09037187  0.27700401  0.09089632    -0.60900
H1103       H  0.07081599  0.26984388  0.10737936     0.43200
H1104       H  0.18467244  0.16928618  0.03955267     0.43100
C1105       C  0.12942590  0.07239546  0.14875024    -0.05900
C1106       C  0.11499834  0.10107736  0.13257334    -0.33400
C1107       C  0.12851472  0.13262558  0.14111829     0.35900
C1108       C  0.15821017  0.13606185  0.16506449    -0.06300
C1109       C  0.17482275  0.10713277  0.17840662    -0.33300
C1110       C  0.16070454  0.07573959  0.17076737     0.35800
H1111       H  0.09154901  0.09940383  0.11494797     0.16100
O1112       O  0.11137728  0.15988919  0.12700509    -0.60800
H1113       H  0.19764456  0.10872653  0.19682602     0.16200
O1114       O  0.17670120  0.04877594  0.18681950    -0.60900
H1115       H  0.19437068  0.04034242  0.16910934     0.43200
H1116       H  0.09005847  0.16388312  0.14253134     0.43100
C1117       C  0.87224250  0.15912460  0.20321375    -0.05900
C1118       C  0.84569062  0.14725561  0.22717476    -0.33400
C1119       C  0.82364245  0.16938709  0.24696010     0.35900
C1120       C  0.82863046  0.20401873  0.24380844    -0.06300
C1121       C  0.85559948  0.21548722  0.22018609    -0.33300
C1122       C  0.87702338  0.19365228  0.20027804     0.35800
H1123       H  0.84245176  0.12080115  0.23100168     0.16100
O1124       O  0.79634820  0.15690838  0.26790209    -0.60800
H1125       H  0.85987952  0.24188217  0.21672512     0.16200
O1126       O  0.90418272  0.20639477  0.17928342    -0.60900
H1127       H  0.89379713  0.20700852  0.15476727     0.43200
H1128       H  0.80678596  0.15598456  0.29238224     0.43100
C1129       C  0.99888255  0.13327556  0.21839829    -0.05900
C1130       C  0.99560524  0.15104806  0.25097477    -0.33400
C1131       C  0.02562005  0.16677211  0.26738652     0.35900
C1132       C  0.06035310  0.16416664  0.25230474    -0.06300
C1133       C  0.06445242  0.14317262  0.22234818    -0.33300
C1134       C  0.03428396  0.12833111  0.20515094     0.35800
H1135       H  0.96904254  0.15515216  0.26256926     0.16100
O1136       O  0.01971521  0.18805600  0.29523893    -0.60800
H1137       H  0.09093744  0.14102716  0.20998935     0.16200
O1138       O  0.03965275  0.11109927  0.17413404    -0.60900
H1139       H  0.03703944  0.12773004  0.15471605     0.43200
H1140       H  0.02763057  0.17575781  0.31691110     0.43100
C1141       C  0.74243521  0.95102871  0.17214915    -0.05900
C1142       C  0.71720020  0.92976316  0.15511025    -0.33400
C1143       C  0.69362839  0.90884069  0.17519431     0.35900
C1144       C  0.69479894  0.90885377  0.21308685    -0.06300
C1145       C  0.71998404  0.93019762  0.22966979    -0.33300
C1146       C  0.74300410  0.95110436  0.20988614     0.35800
H1147       H  0.71517243  0.92985760  0.12623272     0.16100
O1148       O  0.67091343  0.88744968  0.15741591    -0.60800
H1149       H  0.72235358  0.93029250  0.25854447     0.16200
O1150       O  0.76653658  0.97161042  0.22793521    -0.60900
H1151       H  0.75155637  0.99077928  0.23548100     0.43200
H1152       H  0.64700008  0.89884487  0.15634402     0.43100
C1153       C  0.73675973  0.13371379  0.18938353    -0.05900
C1154       C  0.71466548  0.10568245  0.19442066    -0.33400
C1155       C  0.72418595  0.07473182  0.18065205     0.35900
C1156       C  0.75698078  0.07063171  0.16141953    -0.06300
C1157       C  0.77873091  0.09885318  0.15540433    -0.33300
C1158       C  0.76871625  0.13016616  0.16881222     0.35800
H1159       H  0.68943365  0.10758924  0.20913526     0.16100
O1160       O  0.70044128  0.04885445  0.18555138    -0.60800
H1161       H  0.80392429  0.09667387  0.14068692     0.16200
O1162       O  0.79110611  0.15677321  0.16272292    -0.60900
H1163       H  0.78733401  0.16265371  0.13725210     0.43200
H1164       H  0.70502391  0.04087814  0.21027276     0.43100
C1165       C  0.99945311  0.80856365  0.11526461    -0.05900
C1166       C  0.99471757  0.77721115  0.13194614    -0.33400
C1167       C  0.02439284  0.75897614  0.14573958     0.35900
C1168       C  0.05988582  0.77142316  0.14259588    -0.06300
C1169       C  0.06503176  0.80055502  0.12212767    -0.33300
C1170       C  0.03540348  0.81927321  0.10909413     0.35800
H1171       H  0.96761978  0.76766534  0.13683138     0.16100
O1172       O  0.01795785  0.73131430  0.16612509    -0.60800
H1173       H  0.09213913  0.81105428  0.11996522     0.16200
O1174       O  0.04207195  0.84919319  0.09299009    -0.60900
H1175       H  0.04250004  0.86548596  0.11277199     0.43200
H1176       H  0.01362216  0.71323676  0.14872536     0.43100
C1177       C  0.87307565  0.82679382  0.14354370    -0.05900
C1178       C  0.85914564  0.79485257  0.13633264    -0.33400
C1179       C  0.83548330  0.77862518  0.16036770     0.35900
C1180       C  0.82637246  0.79372310  0.19306496    -0.06300
C1181       C  0.84118664  0.82541993  0.20021206    -0.33300
C1182       C  0.86345872  0.84202886  0.17570410     0.35800
H1183       H  0.86734776  0.78210431  0.11225959     0.16100
O1184       O  0.82222150  0.74784001  0.15192087    -0.60800
H1185       H  0.83572565  0.83764634  0.22528699     0.16200
O1186       O  0.87812231  0.87211633  0.18485475    -0.60900
H1187       H  0.86139783  0.88881758  0.17425039     0.43200
H1188       H  0.80122465  0.75200859  0.13570560     0.43100
C1189       C  0.11785044  0.94748236  0.86533065    -0.05900
C1190       C  0.15356906  0.94380659  0.85278105    -0.33400
C1191       C  0.16640744  0.91293883  0.84136588     0.35900
C1192       C  0.14290736  0.88518269  0.84145791    -0.06300
C1193       C  0.10842938  0.88841453  0.85748434    -0.33300
C1194       C  0.09587996  0.91916616  0.86938888     0.35800
H1195       H  0.17086832  0.96539731  0.84971735     0.16100
O1196       O  0.20073788  0.91104533  0.82726845    -0.60800
H1197       H  0.08996648  0.86749281  0.85862943     0.16200
O1198       O  0.06042277  0.92186828  0.88035984    -0.60900
H1199       H  0.06177433  0.92430882  0.90664870     0.43200
H1200       H  0.21737693  0.90954385  0.84819638     0.43100
C1201       C  0.09745043  0.05261333  0.80532118    -0.05900
C1202       C  0.13385708  0.05591767  0.79459379    -0.33400
C1203       C  0.14399376  0.08131863  0.77132898     0.35900
C1204       C  0.11734171  0.10314082  0.75796601    -0.06300
C1205       C  0.08051904  0.09748221  0.76552885    -0.33300
C1206       C  0.07040113  0.07228612  0.78908355     0.35800
H1207       H  0.15496250  0.04066229  0.80660276     0.16100
O1208       O  0.18030073  0.08692768  0.76508662    -0.60800
H1209       H  0.05988465  0.11420169  0.75531353     0.16200
O1210       O  0.03436072  0.06823928  0.79752021    -0.60900
H1211       H  0.02350150  0.05622869  0.77697180     0.43200
H1212       H  0.18916553  0.09972516  0.78600492     0.43100
C1213       C  0.87347012  0.90684916  0.80051069    -0.05900
C1214       C  0.87036663  0.89277945  0.76641686    -0.33400
C1215       C  0.83955443  0.87477759  0.75664462     0.35900
C1216       C  0.81099285  0.87036725  0.78128360    -0.06300
C1217       C  0.81213094  0.88802657  0.81364254    -0.33300
C1218       C  0.84290997  0.90651426  0.82318429     0.35800
H1219       H  0.89293744  0.89386444  0.74792542     0.16100
O1220       O  0.83882346  0.86004907  0.72367968    -0.60800
H1221       H  0.78987394  0.88637296  0.83243745     0.16200
O1222       O  0.84319719  0.92301039  0.85519040    -0.60900
H1223       H  0.85155988  0.90663307  0.87322087     0.43200
H1224       H  0.82797868  0.87684960  0.70739922     0.43100
C1225       C  0.00138025  0.88189539  0.79559464    -0.05900
C1226       C  0.03311887  0.89565761  0.78065132    -0.33400
C1227       C  0.05529101  0.87679072  0.75745467     0.35900
C1228       C  0.04574074  0.84374989  0.74892570    -0.06300
C1229       C  0.01384569  0.83054887  0.76374384    -0.33300
C1230       C  0.99221333  0.84892233  0.78693425     0.35800
H1231       H  0.04017778  0.92121014  0.78617116     0.16100
O1232       O  0.08667795  0.89050395  0.74436586    -0.60800
H1233       H  0.00608352  0.80514061  0.75820814     0.16200
O1234       O  0.96206646  0.83415041  0.80161518    -0.60900
H1235       H  0.94375839  0.83307347  0.78203287     0.41800
H1236       H  0.08007467  0.89889869  0.72025131     0.43100
C1237       C  0.86980998  0.21204079  0.85773269    -0.05900
C1238       C  0.85531225  0.23864419  0.87699614    -0.33400
C1239       C  0.83473430  0.26360633  0.85967331     0.35900
C1240       C  0.82776119  0.26221657  0.82238149    -0.06300
C1241       C  0.84279532  0.23590947  0.80310412    -0.33300
C1242       C  0.86368146  0.21129026  0.82018506     0.35800
H1243       H  0.86153160  0.24106477  0.90519906     0.16100
O1244       O  0.82074870  0.28899514  0.87963599    -0.60800
H1245       H  0.83777029  0.23400199  0.77463167     0.16200
O1246       O  0.88069407  0.18812918  0.79918204    -0.60900
H1247       H  0.87431019  0.16611788  0.80915103     0.43200
H1248       H  0.84132266  0.30458175  0.88330254     0.43100
C1249       C  0.03055310  0.21746510  0.77238300    -0.05900
C1250       C  0.02268272  0.18334557  0.77669907    -0.33400
C1251       C  0.00384179  0.17102637  0.80660079     0.35900
C1252       C  0.99265482  0.19267268  0.83369725    -0.06300
C1253       C  0.99992650  0.22690647  0.82914733    -0.33300
C1254       C  0.01818628  0.23933466  0.79888135     0.35800
H1255       H  0.03168616  0.16594888  0.75669166     0.16100
O1256       O  0.99521239  0.13798939  0.80824458    -0.60800
H1257       H  0.99016647  0.24438966  0.84881134     0.16200
O1258       O  0.02580586  0.27255198  0.79677980    -0.60900
H1259       H  0.00394633  0.28267595  0.78550760     0.43200
H1260       H  0.97068011  0.13618355  0.79714041     0.43100
C1261       C  0.75084272  0.96278131  0.82235841    -0.05900
C1262       C  0.72478757  0.94839063  0.84493836    -0.33400
C1263       C  0.69901971  0.92503852  0.83197765     0.35900
C1264       C  0.69849503  0.91520922  0.79546583    -0.06300
C1265       C  0.72429697  0.93004861  0.77284208    -0.33300
C1266       C  0.74989247  0.95351488  0.78581696     0.35800
H1267       H  0.72395255  0.95562558  0.87276257     0.16100
O1268       O  0.67392199  0.91223572  0.85530237    -0.60800
H1269       H  0.72584168  0.92232638  0.74520611     0.16200
O1270       O  0.77536858  0.96597680  0.76274725    -0.60900
H1271       H  0.76232064  0.98299828  0.74840824     0.43200
H1272       H  0.68808868  0.89852959  0.87249575     0.43100
C1273       C  0.79767022  0.07677656  0.80684660    -0.05900
C1274       C  0.77567037  0.08021158  0.77629063    -0.33400
C1275       C  0.76624404  0.11157030  0.76309322     0.35900
C1276       C  0.77775569  0.14053026  0.78128322    -0.06300
C1277       C  0.80313919  0.13705818  0.80920842    -0.33300
C1278       C  0.81381986  0.10567632  0.82149425     0.35800
H1279       H  0.76403055  0.05855746  0.76353016     0.16100
O1280       O  0.74297787  0.11328089  0.73434688    -0.60800
H1281       H  0.81273610  0.15870321  0.82340264     0.16200
O1282       O  0.83784823  0.10390974  0.84966195    -0.60900
H1283       H  0.86237290  0.10507489  0.83875183     0.43200
H1284       H  0.75898796  0.11346683  0.71310841     0.43100
C1285       C  0.16211404  0.86510443  0.12639237    -0.05900
C1286       C  0.13120051  0.88565904  0.12569501    -0.33400
C1287       C  0.11745396  0.89807687  0.09337347     0.35900
C1288       C  0.13434767  0.88946302  0.06091304    -0.06300
C1289       C  0.16741449  0.87212483  0.06205630    -0.33300
C1290       C  0.18144945  0.86008512  0.09427876     0.35800
H1291       H  0.11622319  0.89045326  0.14998271     0.16100
O1292       O  0.08553653  0.91570754  0.09374305    -0.60800
H1293       H  0.18132458  0.86589018  0.03752662     0.16200
O1294       O  0.21201623  0.84056875  0.09323620    -0.60900
H1295       H  0.23273948  0.85606198  0.09652368     0.43200
H1296       H  0.09310072  0.93929220  0.09370334     0.43100
C1297       C  0.10962600  0.84299755  0.94328374    -0.05900
C1298       C  0.14628081  0.83350247  0.93851413    -0.33400
C1299       C  0.15600901  0.80702206  0.91610653     0.35900
C1300       C  0.12895553  0.78879485  0.89782506    -0.06300
C1301       C  0.09214689  0.79788155  0.90335864    -0.33300
C1302       C  0.08248107  0.82473613  0.92535492     0.35800
H1303       H  0.16778470  0.84693110  0.95216970     0.16100
O1304       O  0.19221463  0.80005062  0.91145688    -0.60800
H1305       H  0.07049095  0.78426445  0.89026163     0.16200
O1306       O  0.04637274  0.83250807  0.92942904    -0.60900
H1307       H  0.03883077  0.82110077  0.95169458     0.43200
H1308       H  0.19810710  0.78308733  0.92983513     0.43100
C1309       C  0.74397542  0.17229542  0.06974395    -0.05900
C1310       C  0.70851761  0.16786674  0.08339539    -0.33400
C1311       C  0.69144031  0.19234798  0.10441632     0.35900
C1312       C  0.70906343  0.22283965  0.11120634    -0.06300
C1313       C  0.74472443  0.22692512  0.09771189    -0.33300
C1314       C  0.76223052  0.20195796  0.07791185     0.35800
H1315       H  0.69357526  0.14546610  0.07700836     0.16100
O1316       O  0.65804685  0.18569605  0.11903439    -0.60800
H1317       H  0.75927328  0.24985974  0.10232115     0.16200
O1318       O  0.79645168  0.20773172  0.06481321    -0.60900
H1319       H  0.81317226  0.19559996  0.08116201     0.43200
H1320       H  0.64019192  0.18926533  0.09940342     0.43100
C1321       C  0.68041211  0.16648684  0.88722849    -0.05900
C1322       C  0.66554889  0.16850257  0.92145199    -0.33400
C1323       C  0.68401347  0.15519367  0.95144958     0.35900
C1324       C  0.71883454  0.13982280  0.94796922    -0.06300
C1325       C  0.73143717  0.13438998  0.91319155    -0.33300
C1326       C  0.71252567  0.14743888  0.88322965     0.35800
H1327       H  0.64117350  0.18311299  0.92554812     0.16100
O1328       O  0.66824040  0.15869781  0.98435881    -0.60800
H1329       H  0.75747529  0.12236221  0.90917720     0.16200
O1330       O  0.72765069  0.14425760  0.85015841    -0.60900
H1331       H  0.75027982  0.15749998  0.85153637     0.43200
H1332       H  0.67111365  0.18245080  0.99057021     0.43100
C1333       C  0.73808745  0.83313725  0.11273357    -0.05900
C1334       C  0.76573885  0.85728504  0.11407396    -0.33400
C1335       C  0.78236157  0.86853579  0.08274660     0.35900
C1336       C  0.77165812  0.85521843  0.04951813    -0.06300
C1337       C  0.74286097  0.83255323  0.04805646    -0.33300
C1338       C  0.72616124  0.82142515  0.07905438     0.35800
H1339       H  0.77535935  0.86681327  0.13947387     0.16100
O1340       O  0.81067124  0.89064579  0.08521441    -0.60800
H1341       H  0.73378244  0.82255797  0.02266558     0.16200
O1342       O  0.69837713  0.79883330  0.07585554    -0.60900
H1343       H  0.71050921  0.77713722  0.07226055     0.43200
H1344       H  0.79908222  0.91248440  0.08937748     0.43100
C1345       C  0.79114445  0.76992732  0.87904935    -0.05900
C1346       C  0.81600416  0.79592136  0.87241326    -0.33400
C1347       C  0.82639229  0.81818526  0.89943640     0.35900
C1348       C  0.81302081  0.81409264  0.93435928    -0.06300
C1349       C  0.79325260  0.78475464  0.94195768    -0.33300
C1350       C  0.78210678  0.76303276  0.91467234     0.35800
H1351       H  0.82292173  0.80207533  0.84505872     0.16100
O1352       O  0.84599689  0.84576931  0.89027543    -0.60800
H1353       H  0.78344118  0.77998584  0.96870844     0.16200
O1354       O  0.75773255  0.73831532  0.92241853    -0.60900
H1355       H  0.77291766  0.71859116  0.92785327     0.43200
H1356       H  0.87187783  0.83939863  0.89366240     0.43100
loop_ 
_geom_bond_atom_site_label_1 
_geom_bond_atom_site_label_2 
_geom_bond_distance 
_geom_bond_site_symmetry_2 
_ccdc_geom_bond_type 
C1            N2   1.351       .  A
C1            N6   1.353   1_554  A
C1         C1336   1.470       .  S
N2            C3   1.354   1_554  A
C3            N4   1.374       .  A
C3          C684   1.472       .  S
N4            C5   1.372       .  A
C5            N6   1.354       .  A
C5         C1348   1.505       .  S
C7            N8   1.376       .  A
C7           N12   1.348       .  A
C7         C1309   1.497       .  S
N8            C9   1.379       .  A
C9           N10   1.382   1_554  A
C9          C716   1.528       .  S
N10          C11   1.377       .  A
C11          N12   1.349   1_556  A
C11        C1324   1.517       .  S
C13          N14   1.353       .  A
C13          N18   1.355       .  A
C13        C1288   1.479       .  S
N14          C15   1.355   1_554  A
C15          N16   1.374       .  A
C15         C685   1.480       .  S
N16          C17   1.373       .  A
C17          N18   1.355   1_556  A
C17        C1297   1.500       .  S
C19          N20   1.350       .  A
C19          N24   1.361       .  A
C19        C1273   1.492       .  S
N20          C21   1.351       .  A
C21          N22   1.381   1_545  A
C21         C720   1.498       .  S
N22          C23   1.384       .  A
C23          N24   1.363   1_565  A
C23        C1261   1.517       .  S
C25          N26   1.377       .  A
C25          N30   1.337       .  A
C25        C1237   1.487       .  S
N26          C27   1.383       .  A
C27          N28   1.384       .  A
C27         C721   1.529       .  S
N28          C29   1.377       .  A
C29          N30   1.336       .  A
C29        C1252   1.492       .  S
C31          N32   1.349       .  A
C31          N36   1.350       .  A
C31        C1213   1.476       .  S
N32          C33   1.354       .  A
C33          N34   1.376       .  A
C33         C686   1.472       .  S
N34          C35   1.374       .  A
C35          N36   1.352       .  A
C35        C1225   1.489   1_655  S
C37          N38   1.360       .  A
C37          N42   1.353       .  A
C37        C1201   1.466       .  S
N38          C39   1.357       .  A
C39          N40   1.362   1_545  A
C39         C717   1.464       .  S
N40          C41   1.359       .  A
C41          N42   1.352   1_565  A
C41        C1189   1.475       .  S
C43          N44   1.372       .  A
C43          N48   1.348       .  A
C43        C1177   1.487       .  S
N44          C45   1.374       .  A
C45          N46   1.376       .  A
C45         C687   1.512       .  S
N46          C47   1.374       .  A
C47          N48   1.351       .  A
C47        C1165   1.509       .  S
C49          N50   1.353       .  A
C49          N54   1.362       .  A
C49        C1156   1.500       .  S
N50          C51   1.353   1_545  A
C51          N52   1.380       .  A
C51        C1141   1.509       .  S
N52          C53   1.384   1_565  A
C53          N54   1.367       .  A
C53         C719   1.508       .  S
C55          N56   1.375       .  A
C55          N60   1.347       .  A
C55        C1117   1.491       .  S
N56          C57   1.379       .  A
C57          N58   1.381       .  A
C57         C722   1.525       .  S
N58          C59   1.377       .  A
C59          N60   1.349       .  A
C59        C1129   1.515       .  S
Zr61         O62   2.442       .  S
Zr61         O63   2.440       .  S
Zr61         O64   2.388       .  S
Zr61         O67   2.396       .  S
Zr61         O69   2.373       .  S
Zr61         O70   2.394       .  S
Zr61         O71   2.418       .  S
Zr61         O72   2.405       .  S
O62         H118   0.990       .  S
O62         H126   0.990       .  S
O63          C83   1.285       .  A
O64          C85   1.270       .  A
O65         Zr75   2.495       .  S
O65          C84   1.290       .  A
O66         Zr74   2.543       .  S
O66          C85   1.303       .  A
O67          C84   1.267       .  A
O68         Zr76   2.413       .  S
O68          C83   1.280       .  A
O69         Zr74   2.400       .  S
O69         Zr76   2.368       .  S
O70         Zr75   2.426       .  S
O70         Zr76   2.370       .  S
O70         H105   0.966       .  S
O71         Zr74   2.413       .  S
O71         Zr91   2.396       .  S
O71         H108   0.966       .  S
O72         Zr75   2.423       .  S
O72         Zr91   2.400       .  S
Zr73         O98   2.439       .  S
Zr73         O92   2.431       .  S
Zr73        O100   2.363       .  S
Zr73         O88   2.369       .  S
Zr73         O79   2.385       .  S
Zr73         O80   2.402       .  S
Zr73         O81   2.383       .  S
Zr73         O82   2.378       .  S
Zr74         O93   2.437       .  S
Zr74         O86   2.434       .  S
Zr74         O87   2.553       .  S
Zr74         O80   2.407       .  S
Zr74         O81   2.398       .  S
Zr75         O77   2.434       .  S
Zr75         O99   2.435       .  S
Zr75        O101   2.540       .  S
Zr75         O79   2.399       .  S
Zr75         O82   2.385       .  S
Zr76        O102   2.435       .  S
Zr76        O103   2.436       .  S
Zr76         O78   2.436       .  S
Zr76         O79   2.403       .  S
Zr76         O80   2.379       .  S
O77         H114   0.990       .  S
O78         H109   0.990       .  S
O78         H123   0.990       .  S
O80         H106   0.966       .  S
O81         Zr91   2.368       .  S
O82         Zr91   2.368       .  S
O82         H107   0.964       .  S
C83        C1084   1.485       .  S
C84        C1057   1.503       .  S
C85        C1072   1.503       .  S
O86         H122   0.990       .  S
O87          C89   1.304       .  A
O88          C89   1.260       .  A
C89        C1093   1.502       .  S
O90         Zr91   2.436       .  S
O90         H119   0.990       .  S
Zr91         O94   2.436       .  S
Zr91         O95   2.437       .  S
Zr91         O96   2.436       .  S
O92          C97   1.284       .  A
O93         H110   0.990       .  S
O93         H125   0.990       .  S
O94         H111   0.990       .  S
O95         H115   0.990       .  S
O95         H124   0.990       .  S
O96          C97   1.286       .  A
C97        C1108   1.493       .  S
O98         H117   0.990       .  S
O98         H121   0.990       .  S
O99         H113   0.990       .  S
O99         H120   0.990       .  S
O100        C104   1.272       .  A
O101        C104   1.306       .  A
O102        H112   0.990       .  S
O103        H116   0.990       .  S
C104       C1132   1.494       .  S
C127        N128   1.359       .  A
C127        N132   1.353       .  A
C127       C1105   1.494       .  S
N128        C129   1.362       .  A
C129        N130   1.379   1_545  A
C129        C718   1.505       .  S
N130        C131   1.381       .  A
C131        N132   1.354   1_565  A
C131       C1045   1.504       .  S
Zr133       O134   2.439       .  S
Zr133       O135   2.404       .  S
Zr133       O136   2.365       .  S
Zr133       O139   2.377       .  S
Zr133       O141   2.370       .  S
Zr133       O142   2.392       .  S
Zr133       O143   2.393       .  S
Zr133       O144   2.384       .  S
O134        H190   0.990       .  S
O134        H198   0.990       .  S
O135        C155   1.279       .  A
O136        C157   1.272       .  A
O137       Zr147   2.535       .  S
O137        C156   1.299       .  A
O138       Zr146   2.529       .  S
O138        C157   1.304       .  A
O139        C156   1.264       .  A
O140       Zr148   2.436       .  S
O140        C155   1.285       .  A
O141       Zr146   2.393       .  S
O141       Zr148   2.363       .  S
O142       Zr147   2.403       .  S
O142       Zr148   2.362       .  S
O142        H177   0.964       .  S
O143       Zr146   2.408       .  S
O143       Zr163   2.394       .  S
O143        H180   0.966       .  S
O144       Zr147   2.408       .  S
O144       Zr163   2.386       .  S
Zr145       O170   2.439       .  S
Zr145       O164   2.435       .  S
Zr145       O172   2.352       .  S
Zr145       O160   2.383       .  S
Zr145       O151   2.396       .  S
Zr145       O152   2.399       .  S
Zr145       O153   2.378       .  S
Zr145       O154   2.378       .  S
Zr146       O165   2.434       .  S
Zr146       O158   2.434       .  S
Zr146       O159   2.538       .  S
Zr146       O152   2.415       .  S
Zr146       O153   2.390       .  S
Zr147       O149   2.435       .  S
Zr147       O171   2.434       .  S
Zr147       O173   2.531       .  S
Zr147       O151   2.415       .  S
Zr147       O154   2.394       .  S
Zr148       O174   2.435       .  S
Zr148       O175   2.437       .  S
Zr148       O150   2.438       .  S
Zr148       O151   2.408       .  S
Zr148       O152   2.397       .  S
O149        H186   0.990       .  S
O150        H181   0.990       .  S
O150        H195   0.990       .  S
O152        H178   0.966       .  S
O153       Zr163   2.370       .  S
O154       Zr163   2.372       .  S
O154        H179   0.966       .  S
C155       C1009   1.482       .  S
C156       C1021   1.514       .  S
C157       C1036   1.491       .  S
O158        H194   0.990       .  S
O159        C161   1.300       .  A
O160        C161   1.265       .  A
C161       C1048   1.508       .  S
O162       Zr163   2.436       .  S
O162        H191   0.990       .  S
Zr163       O166   2.434       .  S
Zr163       O167   2.436       .  S
Zr163       O168   2.408       .  S
O164        C169   1.285       .  A
O165        H182   0.990       .  S
O165        H197   0.990       .  S
O166        H183   0.990       .  S
O167        H187   0.990       .  S
O167        H196   0.990       .  S
O168        C169   1.280       .  A
C169       C1285   1.484       .  S
O170        H189   0.990       .  S
O170        H193   0.990       .  S
O171        H185   0.990       .  S
O171        H192   0.990       .  S
O172        C176   1.271       .  A
O173        C176   1.303       .  A
O174        H184   0.990       .  S
O175        H188   0.990       .  S
C176       C1168   1.486       .  S
Zr199       O200   2.440       .  S
Zr199       O201   2.444       .  S
Zr199       O202   2.382       .  S
Zr199       O205   2.392       .  S
Zr199       O207   2.386       .  S
Zr199       O208   2.395       .  S
Zr199       O209   2.426       .  S
Zr199       O210   2.408       .  S
O200        H256   0.990       .  S
O200        H264   0.990       .  S
O201        C221   1.285       .  A
O202        C223   1.263       .  A
O203       Zr213   2.510       .  S
O203        C222   1.293       .  A
O204       Zr212   2.526       .  S
O204        C223   1.295       .  A
O205        C222   1.269       .  A
O206       Zr214   2.435       .  S
O206        C221   1.286       .  A
O207       Zr212   2.405       .  S
O207       Zr214   2.363       .  S
O208       Zr213   2.418       .  S
O208       Zr214   2.358       .  S
O208        H243   0.964       .  S
O209       Zr212   2.419       .  S
O209       Zr229   2.389       .  S
O209        H246   0.966       .  S
O210       Zr213   2.415       .  S
O210       Zr229   2.399       .  S
Zr211       O236   2.438       .  S
Zr211       O230   2.434       .  S
Zr211       O238   2.393       .  S
Zr211       O226   2.383       .  S
Zr211       O217   2.406       .  S
Zr211       O218   2.415       .  S
Zr211       O219   2.382       .  S
Zr211       O220   2.396       .  S
Zr212       O231   2.439       .  S
Zr212       O224   2.435       .  S
Zr212       O225   2.538       .  S
Zr212       O218   2.409       .  S
Zr212       O219   2.397       .  S
Zr213       O215   2.434       .  S
Zr213       O237   2.434       .  S
Zr213       O239   2.500       .  S
Zr213       O217   2.422       .  S
Zr213       O220   2.423       .  S
Zr214       O240   2.437       .  S
Zr214       O241   2.435       .  S
Zr214       O216   2.435       .  S
Zr214       O217   2.401       .  S
Zr214       O218   2.393       .  S
O215        H252   0.990       .  S
O216        H247   0.990       .  S
O216        H261   0.990       .  S
O218        H244   0.966       .  S
O219       Zr229   2.368       .  S
O220       Zr229   2.357       .  S
O220        H245   0.965       .  S
C221       C1153   1.497       .  S
C222       C1312   1.512       .  S
C223       C1120   1.500       .  S
O224        H260   0.990       .  S
O225        C227   1.300       .  A
O226        C227   1.266       .  A
C227        C973   1.505       .  S
O228       Zr229   2.438       .  S
O228        H257   0.990       .  S
Zr229       O232   2.434       .  S
Zr229       O233   2.437       .  S
Zr229       O234   2.428       .  S
O230        C235   1.284       .  A
O231        H248   0.990       .  S
O231        H263   0.990       .  S
O232        H249   0.990       .  S
O233        H253   0.990       .  S
O233        H262   0.990       .  S
O234        C235   1.284       .  A
C235        C988   1.494       .  S
O236        H255   0.989       .  S
O236        H259   0.990       .  S
O237        H251   0.990       .  S
O237        H258   0.990       .  S
O238        C242   1.267       .  A
O239        C242   1.289       .  A
O240        H250   0.990       .  S
O241        H254   0.990       .  S
C242        C997   1.499       .  S
Zr265       O266   2.440       .  S
Zr265       O267   2.418       .  S
Zr265       O268   2.379       .  S
Zr265       O271   2.394       .  S
Zr265       O273   2.381       .  S
Zr265       O274   2.393       .  S
Zr265       O275   2.420       .  S
Zr265       O276   2.398       .  S
O266        H322   0.990       .  S
O266        H330   0.990       .  S
O267        C287   1.281       .  A
O268        C289   1.264       .  A
O269       Zr279   2.520       .  S
O269        C288   1.295       .  A
O270       Zr278   2.516       .  S
O270        C289   1.293       .  A
O271        C288   1.270       .  A
O272       Zr280   2.413       .  S
O272        C287   1.281       .  A
O273       Zr278   2.396       .  S
O273       Zr280   2.361       .  S
O274       Zr279   2.419       .  S
O274       Zr280   2.366       .  S
O274        H309   0.964       .  S
O275       Zr278   2.423       .  S
O275       Zr295   2.378       .  S
O275        H312   0.966       .  S
O276       Zr279   2.414       .  S
O276       Zr295   2.394       .  S
Zr277       O302   2.439       .  S
Zr277       O296   2.423       .  S
Zr277       O304   2.386       .  S
Zr277       O292   2.390       .  S
Zr277       O283   2.400       .  S
Zr277       O284   2.413       .  S
Zr277       O285   2.381       .  S
Zr277       O286   2.396       .  S
Zr278       O297   2.438       .  S
Zr278       O290   2.434       .  S
Zr278       O291   2.514       .  S
Zr278       O284   2.417       .  S
Zr278       O285   2.397       .  S
Zr279       O281   2.434       .  S
Zr279       O303   2.435       .  S
Zr279       O305   2.522       .  S
Zr279       O283   2.420       .  S
Zr279       O286   2.420       .  S
Zr280       O306   2.437       .  S
Zr280       O307   2.436       .  S
Zr280       O282   2.438       .  S
Zr280       O283   2.393       .  S
Zr280       O284   2.388       .  S
O281        H318   0.990       .  S
O282        H313   0.990       .  S
O282        H327   0.990       .  S
O284        H310   0.966       .  S
O285       Zr295   2.366       .  S
O286       Zr295   2.357       .  S
O286        H311   0.964       .  S
C287        C937   1.479       .  S
C288        C949   1.512       .  S
C289        C961   1.493       .  S
O290        H326   0.990       .  S
O291        C293   1.295       .  A
O292        C293   1.268       .  A
C293       C1180   1.505       .  S
O294       Zr295   2.436       .  S
O294        H323   0.990       .  S
Zr295       O298   2.435       .  S
Zr295       O299   2.440       .  S
Zr295       O300   2.402       .  S
O296        C301   1.282       .  A
O297        H314   0.990       .  S
O297        H329   0.990       .  S
O298        H315   0.990       .  S
O299        H319   0.990       .  S
O299        H328   0.990       .  S
O300        C301   1.278       .  A
C301       C1333   1.480       .  S
O302        H321   0.990       .  S
O302        H325   0.989       .  S
O303        H317   0.990       .  S
O303        H324   0.990       .  S
O304        C308   1.266       .  A
O305        C308   1.292       .  A
O306        H316   0.990       .  S
O307        H320   0.990       .  S
C308       C1144   1.510       .  S
C331        N332   1.347   1_554  A
C331        N336   1.377       .  A
C331       C1096   1.495       .  S
N332        C333   1.347       .  A
C333        N334   1.376       .  A
C333        C925   1.518       .  S
N334        C335   1.384   1_556  A
C335        N336   1.379       .  A
C335        C715   1.526       .  S
Zr337       O338   2.435       .  S
Zr337       O339   2.380       .  S
Zr337       O340   2.372       .  S
Zr337       O343   2.342       .  S
Zr337       O346   2.367       .  S
Zr337       O347   2.404       .  S
Zr337       O348   2.388       .  S
Zr337       O345   2.251       .  S
O338        H394   0.989       .  S
O338        H402   0.988       .  S
O339        C359   1.276       .  A
O340        C361   1.256       .  A
O341       Zr351   2.559       .  S
O341        C360   1.310       .  A
O342       Zr350   2.522       .  S
O342        C361   1.290       .  A
O343        C360   1.268       .  A
O344       Zr352   2.444       .  S
O344        C359   1.284       .  A
O345       Zr350   2.309       .  S
O345       Zr352   2.273       .  S
O346       Zr351   2.387       .  S
O346       Zr352   2.376       .  S
O346        H381   0.966       .  S
O347       Zr350   2.425       .  S
O347       Zr367   2.392       .  S
O347        H384   0.966       .  S
O348       Zr351   2.395       .  S
O348       Zr367   2.399       .  S
Zr349       O374   2.438       .  S
Zr349       O368   2.415       .  S
Zr349       O376   2.381       .  S
Zr349       O364   2.371       .  S
Zr349       O355   2.404       .  S
Zr349       O356   2.408       .  S
Zr349       O357   2.383       .  S
Zr349       O358   2.398       .  S
Zr350       O369   2.435       .  S
Zr350       O362   2.435       .  S
Zr350       O363   2.543       .  S
Zr350       O356   2.413       .  S
Zr350       O357   2.382       .  S
Zr351       O353   2.434       .  S
Zr351       O375   2.434       .  S
Zr351       O377   2.522       .  S
Zr351       O355   2.428       .  S
Zr351       O358   2.415       .  S
Zr352       O378   2.435       .  S
Zr352       O379   2.436       .  S
Zr352       O354   2.436       .  S
Zr352       O355   2.395       .  S
Zr352       O356   2.405       .  S
O353        H390   0.990       .  S
O354        H385   0.990       .  S
O354        H399   0.990       .  S
O356        H382   0.966       .  S
O357       Zr367   2.380       .  S
O358       Zr367   2.372       .  S
O358        H383   0.965       .  S
C359       C1204   1.456       .  S
C360        C928   1.502       .  S
C361       C1249   1.501       .  S
O362        H398   0.991       .  S
O363        C365   1.301       .  A
O364        C365   1.266       .  A
C365        C889   1.499       .  S
O366       Zr367   2.436       .  S
O366        H395   0.990       .  S
Zr367       O370   2.433       .  S
Zr367       O371   2.441       .  S
Zr367       O372   2.412       .  S
O368        C373   1.282       .  A
O369        H386   0.990       .  S
O369        H401   0.990       .  S
O370        H387   0.990       .  S
O371        H391   0.989       .  S
O371        H400   0.990       .  S
O372        C373   1.279       .  A
C373        C904   1.476       .  S
O374        H393   0.989       .  S
O374        H397   0.989       .  S
O375        H389   0.990       .  S
O375        H396   0.990       .  S
O376        C380   1.263       .  A
O377        C380   1.292       .  A
O378        H388   0.990       .  S
O379        H392   0.990       .  S
C380        C913   1.505       .  S
Zr403       O404   2.438       .  S
Zr403       O405   2.423       .  S
Zr403       O406   2.396       .  S
Zr403       O409   2.390       .  S
Zr403       O411   2.380       .  S
Zr403       O412   2.399       .  S
Zr403       O413   2.413       .  S
Zr403       O414   2.401       .  S
O404        H460   0.989       .  S
O404        H468   0.990       .  S
O405        C425   1.283       .  A
O406        C427   1.269       .  A
O407       Zr417   2.481       .  S
O407        C426   1.282       .  A
O408       Zr416   2.507       .  S
O408        C427   1.295       .  A
O409        C426   1.267       .  A
O410       Zr418   2.441       .  S
O410        C425   1.286       .  A
O411       Zr416   2.390       .  S
O411       Zr418   2.357       .  S
O412       Zr417   2.418       .  S
O412       Zr418   2.370       .  S
O412        H447   0.966       .  S
O413       Zr416   2.410       .  S
O413       Zr433   2.405       .  S
O413        H450   0.966       .  S
O414       Zr417   2.417       .  S
O414       Zr433   2.392       .  S
Zr415       O440   2.438       .  S
Zr415       O434   2.426       .  S
Zr415       O442   2.409       .  S
Zr415       O430   2.382       .  S
Zr415       O421   2.403       .  S
Zr415       O422   2.405       .  S
Zr415       O423   2.377       .  S
Zr415       O424   2.385       .  S
Zr416       O435   2.436       .  S
Zr416       O428   2.435       .  S
Zr416       O429   2.497       .  S
Zr416       O422   2.408       .  S
Zr416       O423   2.395       .  S
Zr417       O419   2.435       .  S
Zr417       O441   2.436       .  S
Zr417       O443   2.472       .  S
Zr417       O421   2.414       .  S
Zr417       O424   2.425       .  S
Zr418       O444   2.434       .  S
Zr418       O445   2.435       .  S
Zr418       O420   2.435       .  S
Zr418       O421   2.403       .  S
Zr418       O422   2.395       .  S
O419        H456   0.990       .  S
O420        H451   0.990       .  S
O420        H465   0.990       .  S
O422        H448   0.966       .  S
O423       Zr433   2.370       .  S
O424       Zr433   2.369       .  S
O424        H449   0.966       .  S
C425       C1192   1.491       .  S
C426       C1228   1.493       .  S
C427       C1300   1.508       .  S
O428        H464   0.990       .  S
O429        C431   1.294       .  A
O430        C431   1.272       .  A
C431        C865   1.477       .  S
O432       Zr433   2.437       .  S
O432        H461   0.990       .  S
Zr433       O436   2.433       .  S
Zr433       O437   2.437       .  S
Zr433       O438   2.437       .  S
O434        C439   1.282       .  A
O435        H452   0.990       .  S
O435        H467   0.990       .  S
O436        H453   0.990       .  S
O437        H457   0.990       .  S
O437        H466   0.990       .  S
O438        C439   1.285       .  A
C439        C877   1.490       .  S
O440        H459   0.989       .  S
O440        H463   0.990       .  S
O441        H455   0.990       .  S
O441        H462   0.990       .  S
O442        C446   1.270       .  A
O443        C446   1.286       .  A
O444        H454   0.990       .  S
O445        H458   0.990       .  S
C446        C853   1.493       .  S
Zr469       O470   2.444       .  S
Zr469       O471   2.461       .  S
Zr469       O472   2.388       .  S
Zr469       O475   2.387       .  S
Zr469       O477   2.372       .  S
Zr469       O478   2.393       .  S
Zr469       O479   2.416       .  S
Zr469       O480   2.412       .  S
O470        H526   0.989       .  S
O470        H534   0.990       .  S
O471        C491   1.289       .  A
O472        C493   1.270       .  A
O473       Zr483   2.502       .  S
O473        C492   1.289       .  A
O474       Zr482   2.532       .  S
O474        C493   1.301       .  A
O475        C492   1.264       .  A
O476       Zr484   2.398       .  S
O476        C491   1.276       .  A
O477       Zr482   2.407       .  S
O477       Zr484   2.376       .  S
O478       Zr483   2.424       .  S
O478       Zr484   2.365       .  S
O478        H513   0.966       .  S
O479       Zr482   2.408       .  S
O479       Zr499   2.402       .  S
O479        H516   0.966       .  S
O480       Zr483   2.426       .  S
O480       Zr499   2.401       .  S
Zr481       O506   2.442       .  S
Zr481       O500   2.426       .  S
Zr481       O508   2.387       .  S
Zr481       O496   2.364       .  S
Zr481       O487   2.391       .  S
Zr481       O488   2.430       .  S
Zr481       O489   2.385       .  S
Zr481       O490   2.386       .  S
Zr482       O501   2.438       .  S
Zr482       O494   2.434       .  S
Zr482       O495   2.538       .  S
Zr482       O488   2.416       .  S
Zr482       O489   2.407       .  S
Zr483       O485   2.435       .  S
Zr483       O507   2.435       .  S
Zr483       O509   2.537       .  S
Zr483       O487   2.396       .  S
Zr483       O490   2.402       .  S
Zr484       O510   2.433       .  S
Zr484       O511   2.434       .  S
Zr484       O486   2.437       .  S
Zr484       O487   2.397       .  S
Zr484       O488   2.374       .  S
O485        H522   0.990       .  S
O486        H517   0.990       .  S
O486        H531   0.990       .  S
O488        H514   0.967       .  S
O489       Zr499   2.364       .  S
O490       Zr499   2.384       .  S
O490        H515   0.965       .  S
C491       C1276   1.493       .  S
C492       C1240   1.497       .  S
C493       C1321   1.498       .  S
O494        H530   0.990       .  S
O495        C497   1.296       .  A
O496        C497   1.256       .  A
C497        C829   1.497       .  S
O498       Zr499   2.437       .  S
O498        H527   0.990       .  S
Zr499       O502   2.437       .  S
Zr499       O503   2.436       .  S
Zr499       O504   2.440       .  S
O500        C505   1.282       .  A
O501        H518   0.990       .  S
O501        H533   0.990       .  S
O502        H519   0.990       .  S
O503        H523   0.990       .  S
O503        H532   0.990       .  S
O504        C505   1.284       .  A
C505        C841   1.491       .  S
O506        H525   0.990       .  S
O506        H529   0.989       .  S
O507        H521   0.990       .  S
O507        H528   0.990       .  S
O508        C512   1.270       .  A
O509        C512   1.300       .  A
O510        H520   0.990       .  S
O511        H524   0.990       .  S
C512        C817   1.505       .  S
Zr535       O536   2.439       .  S
Zr535       O537   2.413       .  S
Zr535       O538   2.355       .  S
Zr535       O541   2.385       .  S
Zr535       O543   2.375       .  S
Zr535       O544   2.384       .  S
Zr535       O545   2.395       .  S
Zr535       O546   2.388       .  S
O536        H592   0.990       .  S
O536        H600   0.990       .  S
O537        C557   1.281       .  A
O538        C559   1.271       .  A
O539       Zr549   2.554       .  S
O539        C558   1.304       .  A
O540       Zr548   2.514       .  S
O540        C559   1.300       .  A
O541        C558   1.268       .  A
O542       Zr550   2.430       .  S
O542        C557   1.284       .  A
O543       Zr548   2.395       .  S
O543       Zr550   2.365       .  S
O544       Zr549   2.391       .  S
O544       Zr550   2.360       .  S
O544        H579   0.964       .  S
O545       Zr548   2.411       .  S
O545       Zr565   2.392       .  S
O545        H582   0.966       .  S
O546       Zr549   2.413       .  S
O546       Zr565   2.401       .  S
Zr547       O572   2.441       .  S
Zr547       O566   2.418       .  S
Zr547       O574   2.358       .  S
Zr547       O562   2.388       .  S
Zr547       O553   2.395       .  S
Zr547       O554   2.394       .  S
Zr547       O555   2.375       .  S
Zr547       O556   2.386       .  S
Zr548       O567   2.434       .  S
Zr548       O560   2.435       .  S
Zr548       O561   2.531       .  S
Zr548       O554   2.412       .  S
Zr548       O555   2.382       .  S
Zr549       O551   2.433       .  S
Zr549       O573   2.434       .  S
Zr549       O575   2.539       .  S
Zr549       O553   2.415       .  S
Zr549       O556   2.405       .  S
Zr550       O576   2.436       .  S
Zr550       O577   2.436       .  S
Zr550       O552   2.435       .  S
Zr550       O553   2.406       .  S
Zr550       O554   2.390       .  S
O551        H588   0.990       .  S
O552        H583   0.990       .  S
O552        H597   0.990       .  S
O554        H580   0.966       .  S
O555       Zr565   2.362       .  S
O556       Zr565   2.366       .  S
O556        H581   0.964       .  S
C557       C1216   1.481       .  S
C558       C1264   1.520       .  S
C559       C1345   1.480       .  S
O560        H596   0.990       .  S
O561        C563   1.300       .  A
O562        C563   1.268       .  A
C563        C793   1.509       .  S
O564       Zr565   2.436       .  S
O564        H593   0.990       .  S
Zr565       O568   2.435       .  S
Zr565       O569   2.437       .  S
Zr565       O570   2.425       .  S
O566        C571   1.281       .  A
O567        H584   0.990       .  S
O567        H599   0.990       .  S
O568        H585   0.990       .  S
O569        H589   0.990       .  S
O569        H598   0.990       .  S
O570        C571   1.284       .  A
C571        C805   1.486       .  S
O572        H591   0.990       .  S
O572        H595   0.990       .  S
O573        H587   0.990       .  S
O573        H594   0.990       .  S
O574        C578   1.272       .  A
O575        C578   1.305       .  A
O576        H586   0.990       .  S
O577        H590   0.990       .  S
C578        C781   1.486       .  S
C601        N602   1.356       .  A
C601        N606   1.354       .  A
C601        C808   1.488       .  S
N602        C603   1.357       .  A
C603        N604   1.370       .  A
C603        C738   1.473       .  S
N604        C605   1.371       .  A
C605        N606   1.356       .  A
C605        C868   1.504       .  S
C607        N608   1.356       .  A
C607        N612   1.359       .  A
C607        C901   1.482       .  S
N608        C609   1.351       .  A
C609        N610   1.357       .  A
C609        C740   1.460       .  S
N610        C611   1.362       .  A
C611        N612   1.359       .  A
C611        C880   1.490       .  S
C613        N614   1.376       .  A
C613        N618   1.336       .  A
C613        C832   1.480       .  S
N614        C615   1.381       .  A
C615        N616   1.387       .  A
C615        C739   1.532       .  S
N616        C617   1.381       .  A
C617        N618   1.336       .  A
C617        C916   1.491       .  S
C619        N620   1.356       .  A
C619        N624   1.358       .  A
C619        C844   1.494       .  S
N620        C621   1.357       .  A
C621        N622   1.380       .  A
C621        C796   1.504       .  S
N622        C623   1.378       .  A
C623        N624   1.358       .  A
C623        C741   1.501       .  S
C625        N626   1.346       .  A
C625        N630   1.374       .  A
C625       C1000   1.493       .  S
N626        C627   1.349       .  A
C627        N628   1.381       .  A
C627       C1069   1.521       .  S
N628        C629   1.386       .  A
C629        N630   1.379       .  A
C629        C769   1.532       .  S
C631        N632   1.353       .  A
C631        N636   1.359       .  A
C631        C985   1.493       .  S
N632        C633   1.353       .  A
C633        N634   1.374       .  A
C633        C964   1.493       .  S
N634        C635   1.377       .  A
C635        N636   1.363       .  A
C635        C776   1.491       .  S
C637        N638   1.377       .  A
C637        N642   1.350       .  A
C637        C952   1.499       .  S
N638        C639   1.379       .  A
C639        N640   1.380       .  A
C639        C770   1.528       .  S
N640        C641   1.376       .  A
C641        N642   1.352       .  A
C641       C1033   1.515       .  S
C643        N644   1.352       .  A
C643        N648   1.356       .  A
C643       C1081   1.491       .  S
N644        C645   1.355       .  A
C645        N646   1.380       .  A
C645       C1024   1.509       .  S
N646        C647   1.381       .  A
C647        N648   1.360       .  A
C647        C775   1.498       .  S
C649        N650   1.351       .  A
C649        N654   1.350       .  A
C649        C940   1.468       .  S
N650        C651   1.356       .  A
C651        N652   1.380       .  A
C651        C773   1.484       .  S
N652        C653   1.377       .  A
C653        N654   1.353       .  A
C653        C784   1.513       .  S
C655        N656   1.374       .  A
C655        N660   1.348       .  A
C655        C976   1.498       .  S
N656        C657   1.379       .  A
C657        N658   1.388       .  A
C657        C772   1.534       .  S
N658        C659   1.382       .  A
C659        N660   1.352       .  A
C659        C820   1.528       .  S
C661        N662   1.351       .  A
C661        N666   1.349       .  A
C661       C1012   1.467       .  S
N662        C663   1.354       .  A
C663        N664   1.376       .  A
C663        C856   1.495       .  S
N664        C665   1.376       .  A
C665        N666   1.354       .  A
C665        C774   1.479       .  S
C667        N668   1.378       .  A
C667        N672   1.346       .  A
C667       C1060   1.499       .  S
N668        C669   1.382       .  A
C669        N670   1.387       .  A
C669        C771   1.531       .  S
N670        C671   1.377       .  A
C671        N672   1.343       .  A
C671        C892   1.515       .  S
O673       Zr709   2.488   1_565  S
O673        C684   1.302       .  A
O674       Zr708   2.469   1_566  S
O674        C685   1.297       .  A
O675       Zr681   2.481       .  S
O675        C686   1.298       .  A
O676       Zr681   2.461   1_554  S
O676        C687   1.295       .  A
O677       Zr711   2.529   1_565  S
O677        C687   1.309       .  A
O678       Zr710   2.434   1_565  S
O678        C686   1.290       .  A
O679       Zr681   2.440   1_455  S
O679        C685   1.289       .  A
O680       Zr681   2.413       .  S
O680        C684   1.284       .  A
Zr681       O682   2.358   1_556  S
Zr681       O683   2.352       .  S
Zr681       O691   2.371   1_556  S
Zr681       O689   2.317       .  S
O682       Zr708   2.343   1_665  S
O682       Zr711   2.364   1_565  S
O683       Zr709   2.344   1_565  S
O683       Zr710   2.351   1_565  S
H688        O689   0.963       .  S
O689       Zr708   2.329   1_666  S
O689       Zr710   2.354   1_565  S
H690        O691   0.965       .  S
O691       Zr709   2.359   1_564  S
O691       Zr711   2.369   1_565  S
O692       Zr708   2.436       .  S
O692        C715   1.290       .  A
O693       Zr709   2.479   1_554  S
O693        C716   1.300       .  A
O694       Zr710   2.459       .  S
O694        C717   1.295   1_655  A
O695       Zr711   2.516       .  S
O695        C718   1.305   1_655  A
O696       Zr711   2.507   1_565  S
O696        C719   1.305   1_565  A
O697       Zr710   2.473       .  S
O697        C720   1.299       .  A
O698       Zr712   2.535   1_556  S
O698        C721   1.311       .  A
O699       Zr712   2.532       .  S
O699        C722   1.312       .  A
O700       Zr710   2.484       .  S
O700        C721   1.300       .  A
O701       Zr711   2.496       .  S
O701        C722   1.304       .  A
O702       Zr708   2.437   1_556  S
O702        C717   1.291       .  A
O703       Zr709   2.481       .  S
O703        C720   1.297       .  A
O704       Zr709   2.475   1_554  S
O704        C719   1.298       .  A
O705       Zr708   2.450       .  S
O705        C718   1.294       .  A
O706       Zr712   2.572       .  S
O706        C715   1.318   1_655  A
O707       Zr712   2.549       .  S
O707        C716   1.314       .  A
Zr708       O714   2.360   1_454  S
Zr708       O726   2.360   1_455  S
Zr709       O713   2.370   1_556  S
Zr709       O724   2.381       .  S
Zr710       O714   2.346       .  S
Zr710       O724   2.354       .  S
Zr711       O713   2.378       .  S
Zr711       O726   2.387       .  S
Zr712       O713   2.389       .  S
Zr712       O714   2.358   1_554  S
Zr712       O726   2.392       .  S
Zr712       O724   2.385   1_554  S
H723        O724   0.966       .  S
H725        O726   0.966       .  S
O727       Zr763   2.478       .  S
O727        C738   1.298       .  A
O728       Zr762   2.546       .  S
O728        C739   1.313       .  A
O729       Zr735   2.437       .  S
O729        C740   1.291       .  A
O730       Zr735   2.472       .  S
O730        C741   1.298       .  A
O731       Zr765   2.491       .  S
O731        C741   1.299       .  A
O732       Zr764   2.438       .  S
O732        C740   1.290       .  A
O733       Zr735   2.480       .  S
O733        C739   1.298       .  A
O734       Zr735   2.432       .  S
O734        C738   1.289       .  A
Zr735       O736   2.344       .  S
Zr735       O737   2.356       .  S
Zr735       O745   2.352       .  S
Zr735       O743   2.346       .  S
O736       Zr762   2.382       .  S
O736       Zr765   2.376       .  S
O737       Zr763   2.335       .  S
O737       Zr764   2.338       .  S
H742        O743   0.965       .  S
O743       Zr762   2.356       .  S
O743       Zr764   2.366       .  S
H744        O745   0.965       .  S
O745       Zr763   2.353       .  S
O745       Zr765   2.345       .  S
O746       Zr762   2.529       .  S
O746        C769   1.311       .  A
O747       Zr763   2.477       .  S
O747        C770   1.298       .  A
O748       Zr764   2.457       .  S
O748        C771   1.295       .  A
O749       Zr765   2.486       .  S
O749        C772   1.301       .  A
O750       Zr765   2.502       .  S
O750        C773   1.305       .  A
O751       Zr764   2.460       .  S
O751        C774   1.296       .  A
O752       Zr766   2.483       .  S
O752        C775   1.298       .  A
O753       Zr766   2.484       .  S
O753        C776   1.300       .  A
O754       Zr764   2.474       .  S
O754        C775   1.299       .  A
O755       Zr765   2.467       .  S
O755        C776   1.296       .  A
O756       Zr762   2.574       .  S
O756        C771   1.318       .  A
O757       Zr763   2.450       .  S
O757        C774   1.290       .  A
O758       Zr763   2.425       .  S
O758        C773   1.287       .  A
O759       Zr762   2.553       .  S
O759        C772   1.316       .  A
O760       Zr766   2.511       .  S
O760        C769   1.306       .  A
O761       Zr766   2.542       .  S
O761        C770   1.311       .  A
Zr762       O768   2.387       .  S
Zr762       O780   2.402       .  S
Zr763       O767   2.369       .  S
Zr763       O778   2.356       .  S
Zr764       O768   2.355       .  S
Zr764       O778   2.348       .  S
Zr765       O767   2.359       .  S
Zr765       O780   2.385       .  S
Zr766       O767   2.362       .  S
Zr766       O768   2.382       .  S
Zr766       O780   2.387       .  S
Zr766       O778   2.364       .  S
H777        O778   0.966       .  S
H779        O780   0.966       .  S
C781        C782   1.397       .  A
C781        C786   1.420       .  A
C782        C783   1.409       .  A
C782        H787   1.084       .  S
C783        C784   1.427       .  A
C783        O788   1.373       .  S
C784        C785   1.404       .  A
C785        C786   1.411       .  A
C785        H789   1.083       .  S
C786        O790   1.371       .  S
O788        H792   0.992       .  S
O790        H791   0.991       .  S
C793        C794   1.405       .  A
C793        C798   1.424       .  A
C794        C795   1.414       .  A
C794        H799   1.083       .  S
C795        C796   1.419       .  A
C795        O800   1.371       .  S
C796        C797   1.401       .  A
C797        C798   1.410       .  A
C797        H801   1.083       .  S
C798        O802   1.372       .  S
O800        H804   0.992       .  S
O802        H803   0.992       .  S
C805        C806   1.404       .  A
C805        C810   1.413       .  A
C806        C807   1.394       .  A
C806        H811   1.083       .  S
C807        C808   1.413       .  A
C807        O812   1.371       .  S
C808        C809   1.407       .  A
C809        C810   1.401       .  A
C809        H813   1.083       .  S
C810        O814   1.372       .  S
O812        H816   0.992       .  S
O814        H815   0.991       .  S
C817        C818   1.398       .  A
C817        C822   1.418       .  A
C818        C819   1.412       .  A
C818        H823   1.084       .  S
C819        C820   1.430       .  A
C819        O824   1.372       .  S
C820        C821   1.408       .  A
C821        C822   1.421       .  A
C821        H825   1.083       .  S
C822        O826   1.367       .  S
O824        H828   0.992       .  S
O826        H827   0.992       .  S
C829        C830   1.405       .  A
C829        C834   1.419       .  A
C830        C831   1.417       .  A
C830        H835   1.083       .  S
C831        C832   1.418       .  A
C831        O836   1.373       .  S
C832        C833   1.398       .  A
C833        C834   1.401       .  A
C833        H837   1.084       .  S
C834        O838   1.372       .  S
O836        H840   0.991       .  S
O838        H839   0.992       .  S
C841        C842   1.406       .  A
C841        C846   1.411       .  A
C842        C843   1.399       .  A
C842        H847   1.082       .  S
C843        C844   1.413       .  A
C843        O848   1.372       .  S
C844        C845   1.410       .  A
C845        C846   1.404       .  A
C845        H849   1.083       .  S
C846        O850   1.371       .  S
O848        H852   0.992       .  S
O850        H851   0.992       .  S
C853        C854   1.401       .  A
C853        C858   1.418       .  A
C854        C855   1.403       .  A
C854        H859   1.084       .  S
C855        C856   1.417       .  A
C855        O860   1.372       .  S
C856        C857   1.404       .  A
C857        C858   1.410       .  A
C857        H861   1.083       .  S
C858        O862   1.372       .  S
O860        H864   0.992       .  S
O862        H863   0.992       .  S
C865        C866   1.409       .  A
C865        C870   1.401       .  A
C866        C867   1.409       .  A
C866        H871   1.084       .  S
C867        C868   1.412       .  A
C867        O872   1.371       .  S
C868        C869   1.415       .  A
C869        C870   1.402       .  A
C869        H873   1.082       .  S
C870        O874   1.371       .  S
O872        H876   0.991       .  S
O874        H875   0.992       .  S
C877        C878   1.406       .  A
C877        C882   1.411       .  A
C878        C879   1.405       .  A
C878        H883   1.083       .  S
C879        C880   1.415       .  A
C879        O884   1.372       .  S
C880        C881   1.404       .  A
C881        C882   1.398       .  A
C881        H885   1.083       .  S
C882        O886   1.370       .  S
O884        H888   0.992       .  S
O886        H887   0.992       .  S
C889        C890   1.416       .  A
C889        C894   1.404       .  A
C890        C891   1.417       .  A
C890        H895   1.080       .  S
C891        C892   1.406       .  A
C891        O896   1.371       .  S
C892        C893   1.421       .  A
C893        C894   1.412       .  A
C893        H897   1.084       .  S
C894        O898   1.372       .  S
O896        H900   0.992       .  S
O898        H899   0.992       .  S
C901        C902   1.407       .  A
C901        C906   1.412       .  A
C902        C903   1.399       .  A
C902        H907   1.083       .  S
C903        C904   1.410       .  A
C903        O908   1.371       .  S
C904        C905   1.401       .  A
C905        C906   1.389       .  A
C905        H909   1.078       .  S
C906        O910   1.372       .  S
O908        H912   0.992       .  S
O910        H911   0.992       .  S
C913        C914   1.404       .  A
C913        C918   1.419       .  A
C914        C915   1.414       .  A
C914        H919   1.083       .  S
C915        C916   1.417       .  A
C915        O920   1.372       .  S
C916        C917   1.404       .  A
C917        C918   1.411       .  A
C917        H921   1.084       .  S
C918        O922   1.372       .  S
O920        H924   0.992       .  S
O922        H923   0.992       .  S
C925        C926   1.422       .  A
C925        C930   1.409       .  A
C926        C927   1.411       .  A
C926        H931   1.083       .  S
C927        C928   1.402       .  A
C927        O932   1.372       .  S
C928        C929   1.422       .  A
C929        C930   1.414       .  A
C929        H933   1.085       .  S
C930        O934   1.372       .  S
O932        H936   0.992       .  S
O934        H935   0.992       .  S
C937        C938   1.408       .  A
C937        C942   1.412       .  A
C938        C939   1.397       .  A
C938        H943   1.084       .  S
C939        C940   1.407       .  A
C939        O944   1.372       .  S
C940        C941   1.400       .  A
C941        C942   1.394       .  A
C941        H945   1.084       .  S
C942        O946   1.372       .  S
O944        H948   0.991       .  S
O946        H947   0.992       .  S
C949        C950   1.415       .  A
C949        C954   1.413       .  A
C950        C951   1.412       .  A
C950        H955   1.083       .  S
C951        C952   1.407       .  A
C951        O956   1.371       .  S
C952        C953   1.411       .  A
C953        C954   1.415       .  A
C953        H957   1.083       .  S
C954        O958   1.371       .  S
O956        H960   0.992       .  S
O958        H959   0.992       .  S
C961        C962   1.405       .  A
C961        C966   1.415       .  A
C962        C963   1.398       .  A
C962        H967   1.084       .  S
C963        C964   1.408       .  A
C963        O968   1.373       .  S
C964        C965   1.411       .  A
C965        C966   1.419       .  A
C965        H969   1.083       .  S
C966        O970   1.371       .  S
O968        H972   0.992       .  S
O970        H971   0.991       .  S
C973        C974   1.411       .  A
C973        C978   1.415       .  A
C974        C975   1.420       .  A
C974        H979   1.083       .  S
C975        C976   1.415       .  A
C975        O980   1.371       .  S
C976        C977   1.403       .  A
C977        C978   1.407       .  A
C977        H981   1.084       .  S
C978        O982   1.372       .  S
O980        H984   0.992       .  S
O982        H983   0.992       .  S
C985        C986   1.407       .  A
C985        C990   1.413       .  A
C986        C987   1.396       .  A
C986        H991   1.083       .  S
C987        C988   1.413       .  A
C987        O992   1.372       .  S
C988        C989   1.410       .  A
C989        C990   1.406       .  A
C989        H993   1.083       .  S
C990        O994   1.371       .  S
O992        H996   0.992       .  S
O994        H995   0.992       .  S
C997        C998   1.410       .  A
C997       C1002   1.412       .  A
C998        C999   1.419       .  A
C998       H1003   1.083       .  S
C999       C1000   1.414       .  A
C999       O1004   1.372       .  S
C1000      C1001   1.405       .  A
C1001      C1002   1.405       .  A
C1001      H1005   1.084       .  S
C1002      O1006   1.372       .  S
O1004      H1008   0.991       .  S
O1006      H1007   0.992       .  S
C1009      C1010   1.406       .  A
C1009      C1014   1.416       .  A
C1010      C1011   1.395       .  A
C1010      H1015   1.083       .  S
C1011      C1012   1.404       .  A
C1011      O1016   1.371       .  S
C1012      C1013   1.400       .  A
C1013      C1014   1.394       .  A
C1013      H1017   1.084       .  S
C1014      O1018   1.370       .  S
O1016      H1020   0.992       .  S
O1018      H1019   0.991       .  S
C1021      C1022   1.421       .  A
C1021      C1026   1.408       .  A
C1022      C1023   1.417       .  A
C1022      H1027   1.083       .  S
C1023      C1024   1.408       .  A
C1023      O1028   1.371       .  S
C1024      C1025   1.415       .  A
C1025      C1026   1.410       .  A
C1025      H1029   1.083       .  S
C1026      O1030   1.370       .  S
O1028      H1032   0.992       .  S
O1030      H1031   0.992       .  S
C1033      C1034   1.420       .  A
C1033      C1038   1.410       .  A
C1034      C1035   1.409       .  A
C1034      H1039   1.083       .  S
C1035      C1036   1.403       .  A
C1035      O1040   1.372       .  S
C1036      C1037   1.416       .  A
C1037      C1038   1.411       .  A
C1037      H1041   1.084       .  S
C1038      O1042   1.371       .  S
O1040      H1044   0.992       .  S
O1042      H1043   0.991       .  S
C1045      C1046   1.400       .  A
C1045      C1050   1.420       .  A
C1046      C1047   1.410       .  A
C1046      H1051   1.083       .  S
C1047      C1048   1.423       .  A
C1047      O1052   1.372       .  S
C1048      C1049   1.404       .  A
C1049      C1050   1.416       .  A
C1049      H1053   1.083       .  S
C1050      O1054   1.372       .  S
O1052      H1056   0.992       .  S
O1054      H1055   0.992       .  S
C1057      C1058   1.417       .  A
C1057      C1062   1.407       .  A
C1058      C1059   1.414       .  A
C1058      H1063   1.083       .  S
C1059      C1060   1.405       .  A
C1059      O1064   1.371       .  S
C1060      C1061   1.414       .  A
C1061      C1062   1.404       .  A
C1061      H1065   1.084       .  S
C1062      O1066   1.371       .  S
O1064      H1068   0.992       .  S
O1066      H1067   0.992       .  S
C1069      C1070   1.421       .  A
C1069      C1074   1.408       .  A
C1070      C1071   1.412       .  A
C1070      H1075   1.083       .  S
C1071      C1072   1.403       .  A
C1071      O1076   1.372       .  S
C1072      C1073   1.416       .  A
C1073      C1074   1.419       .  A
C1073      H1077   1.079       .  S
C1074      O1078   1.370       .  S
O1076      H1080   0.992       .  S
O1078      H1079   0.992       .  S
C1081      C1082   1.407       .  A
C1081      C1086   1.415       .  A
C1082      C1083   1.402       .  A
C1082      H1087   1.083       .  S
C1083      C1084   1.409       .  A
C1083      O1088   1.370       .  S
C1084      C1085   1.405       .  A
C1085      C1086   1.398       .  A
C1085      H1089   1.084       .  S
C1086      O1090   1.372       .  S
O1088      H1092   0.991       .  S
O1090      H1091   0.992       .  S
C1093      C1094   1.403       .  A
C1093      C1098   1.423       .  A
C1094      C1095   1.411       .  A
C1094      H1099   1.083       .  S
C1095      C1096   1.418       .  A
C1095      O1100   1.372       .  S
C1096      C1097   1.400       .  A
C1097      C1098   1.412       .  A
C1097      H1101   1.083       .  S
C1098      O1102   1.373       .  S
O1100      H1104   0.992       .  S
O1102      H1103   0.992       .  S
C1105      C1106   1.406       .  A
C1105      C1110   1.415       .  A
C1106      C1107   1.403       .  A
C1106      H1111   1.083       .  S
C1107      C1108   1.414       .  A
C1107      O1112   1.370       .  S
C1108      C1109   1.406       .  A
C1109      C1110   1.398       .  A
C1109      H1113   1.083       .  S
C1110      O1114   1.371       .  S
O1112      H1116   0.991       .  S
O1114      H1115   0.992       .  S
C1117      C1118   1.411       .  A
C1117      C1122   1.408       .  A
C1118      C1119   1.419       .  A
C1118      H1123   1.083       .  S
C1119      C1120   1.414       .  A
C1119      O1124   1.371       .  S
C1120      C1121   1.409       .  A
C1121      C1122   1.401       .  A
C1121      H1125   1.084       .  S
C1122      O1126   1.372       .  S
O1124      H1128   0.991       .  S
O1126      H1127   0.992       .  S
C1129      C1130   1.422       .  A
C1129      C1134   1.408   1_655  A
C1130      C1131   1.409   1_655  A
C1130      H1135   1.083       .  S
C1131      C1132   1.402       .  A
C1131      O1136   1.371       .  S
C1132      C1133   1.416       .  A
C1133      C1134   1.411       .  A
C1133      H1137   1.083       .  S
C1134      O1138   1.371       .  S
O1136      H1140   0.991       .  S
O1138      H1139   0.992       .  S
C1141      C1142   1.413       .  A
C1141      C1146   1.413       .  A
C1142      C1143   1.425       .  A
C1142      H1147   1.083       .  S
C1143      C1144   1.419       .  A
C1143      O1148   1.371       .  S
C1144      C1145   1.406       .  A
C1145      C1146   1.406       .  A
C1145      H1149   1.084       .  S
C1146      O1150   1.372       .  S
O1148      H1152   0.991       .  S
O1150      H1151   0.992       .  S
C1153      C1154   1.404       .  A
C1153      C1158   1.415       .  A
C1154      C1155   1.398       .  A
C1154      H1159   1.083       .  S
C1155      C1156   1.417       .  A
C1155      O1160   1.372       .  S
C1156      C1157   1.409       .  A
C1157      C1158   1.411       .  A
C1157      H1161   1.083       .  S
C1158      O1162   1.371       .  S
O1160      H1164   0.992       .  S
O1162      H1163   0.991       .  S
C1165      C1166   1.420       .  A
C1165      C1170   1.408   1_655  A
C1166      C1167   1.409   1_655  A
C1166      H1171   1.083       .  S
C1167      C1168   1.401       .  A
C1167      O1172   1.371       .  S
C1168      C1169   1.414       .  A
C1169      C1170   1.408       .  A
C1169      H1173   1.085       .  S
C1170      O1174   1.370       .  S
O1172      H1176   0.992       .  S
O1174      H1175   0.992       .  S
C1177      C1178   1.412       .  A
C1177      C1182   1.401       .  A
C1178      C1179   1.414       .  A
C1178      H1183   1.084       .  S
C1179      C1180   1.411       .  A
C1179      O1184   1.371       .  S
C1180      C1181   1.415       .  A
C1181      C1182   1.402       .  A
C1181      H1185   1.082       .  S
C1182      O1186   1.371       .  S
O1184      H1188   0.992       .  S
O1186      H1187   0.992       .  S
C1189      C1190   1.404       .  A
C1189      C1194   1.407       .  A
C1190      C1191   1.401       .  A
C1190      H1195   1.084       .  S
C1191      C1192   1.413       .  A
C1191      O1196   1.371       .  S
C1192      C1193   1.410       .  A
C1193      C1194   1.399       .  A
C1193      H1197   1.083       .  S
C1194      O1198   1.372       .  S
O1196      H1200   0.992       .  S
O1198      H1199   0.990       .  S
C1201      C1202   1.404       .  A
C1201      C1206   1.405       .  A
C1202      C1203   1.395       .  A
C1202      H1207   1.084       .  S
C1203      C1204   1.405       .  A
C1203      O1208   1.373       .  S
C1204      C1205   1.401       .  A
C1205      C1206   1.395       .  A
C1205      H1209   1.081       .  S
C1206      O1210   1.371       .  S
O1208      H1212   0.992       .  S
O1210      H1211   0.992       .  S
C1213      C1214   1.402       .  A
C1213      C1218   1.411       .  A
C1214      C1215   1.391       .  A
C1214      H1219   1.084       .  S
C1215      C1216   1.412       .  A
C1215      O1220   1.371       .  S
C1216      C1217   1.408       .  A
C1217      C1218   1.399       .  A
C1217      H1221   1.083       .  S
C1218      O1222   1.372       .  S
O1220      H1224   0.992       .  S
O1222      H1223   0.990       .  S
C1225      C1226   1.409       .  A
C1225      C1230   1.410   1_455  A
C1226      C1227   1.418       .  A
C1226      H1231   1.083       .  S
C1227      C1228   1.415       .  A
C1227      O1232   1.371       .  S
C1228      C1229   1.403       .  A
C1229      C1230   1.395   1_455  A
C1229      H1233   1.084       .  S
C1230      O1234   1.374       .  S
O1232      H1236   0.992       .  S
O1234      H1235   0.992       .  S
C1237      C1238   1.402       .  A
C1237      C1242   1.422       .  A
C1238      C1239   1.412       .  A
C1238      H1243   1.083       .  S
C1239      C1240   1.419       .  A
C1239      O1244   1.372       .  S
C1240      C1241   1.401       .  A
C1241      C1242   1.405       .  A
C1241      H1245   1.083       .  S
C1242      O1246   1.376       .  S
O1244      H1248   0.992       .  S
O1246      H1247   0.991       .  S
C1249      C1250   1.415       .  A
C1249      C1254   1.407       .  A
C1250      C1251   1.409       .  A
C1250      H1255   1.082       .  S
C1251      C1252   1.404   1_455  A
C1251      O1256   1.371   1_455  S
C1252      C1253   1.417       .  A
C1253      C1254   1.411   1_655  A
C1253      H1257   1.084       .  S
C1254      O1258   1.371       .  S
O1256      H1260   0.992       .  S
O1258      H1259   0.991       .  S
C1261      C1262   1.405       .  A
C1261      C1266   1.419       .  A
C1262      C1263   1.419       .  A
C1262      H1267   1.083       .  S
C1263      C1264   1.424       .  A
C1263      O1268   1.373       .  S
C1264      C1265   1.407       .  A
C1265      C1266   1.418       .  A
C1265      H1269   1.083       .  S
C1266      O1270   1.371       .  S
O1268      H1272   0.992       .  S
O1270      H1271   0.992       .  S
C1273      C1274   1.402       .  A
C1273      C1278   1.418       .  A
C1274      C1275   1.399       .  A
C1274      H1279   1.083       .  S
C1275      C1276   1.417       .  A
C1275      O1280   1.371       .  S
C1276      C1277   1.402       .  A
C1277      C1278   1.401       .  A
C1277      H1281   1.081       .  S
C1278      O1282   1.372       .  S
O1280      H1284   0.992       .  S
O1282      H1283   0.992       .  S
C1285      C1286   1.406       .  A
C1285      C1290   1.415       .  A
C1286      C1287   1.399       .  A
C1286      H1291   1.084       .  S
C1287      C1288   1.412       .  A
C1287      O1292   1.371       .  S
C1288      C1289   1.401       .  A
C1289      C1290   1.394       .  A
C1289      H1293   1.084       .  S
C1290      O1294   1.372       .  S
O1292      H1296   0.991       .  S
O1294      H1295   0.992       .  S
C1297      C1298   1.411       .  A
C1297      C1302   1.407       .  A
C1298      C1299   1.408       .  A
C1298      H1303   1.083       .  S
C1299      C1300   1.410       .  A
C1299      O1304   1.371       .  S
C1300      C1301   1.417       .  A
C1301      C1302   1.410       .  A
C1301      H1305   1.082       .  S
C1302      O1306   1.371       .  S
O1304      H1308   0.992       .  S
O1306      H1307   0.992       .  S
C1309      C1310   1.412       .  A
C1309      C1314   1.405       .  A
C1310      C1311   1.414       .  A
C1310      H1315   1.084       .  S
C1311      C1312   1.413       .  A
C1311      O1316   1.372       .  S
C1312      C1313   1.415       .  A
C1313      C1314   1.410       .  A
C1313      H1317   1.082       .  S
C1314      O1318   1.371       .  S
O1316      H1320   0.992       .  S
O1318      H1319   0.992       .  S
C1321      C1322   1.398       .  A
C1321      C1326   1.416       .  A
C1322      C1323   1.412       .  A
C1322      H1327   1.084       .  S
C1323      C1324   1.428       .  A
C1323      O1328   1.372       .  S
C1324      C1325   1.402       .  A
C1325      C1326   1.415       .  A
C1325      H1329   1.083       .  S
C1326      O1330   1.367       .  S
O1328      H1332   0.992       .  S
O1330      H1331   0.989       .  S
C1333      C1334   1.407       .  A
C1333      C1338   1.414       .  A
C1334      C1335   1.400       .  A
C1334      H1339   1.084       .  S
C1335      C1336   1.410       .  A
C1335      O1340   1.372       .  S
C1336      C1337   1.398       .  A
C1337      C1338   1.389       .  A
C1337      H1341   1.084       .  S
C1338      O1342   1.372       .  S
O1340      H1344   0.992       .  S
O1342      H1343   0.992       .  S
C1345      C1346   1.412       .  A
C1345      C1350   1.403       .  A
C1346      C1347   1.406       .  A
C1346      H1351   1.085       .  S
C1347      C1348   1.409       .  A
C1347      O1352   1.369       .  S
C1348      C1349   1.417       .  A
C1349      C1350   1.407       .  A
C1349      H1353   1.083       .  S
C1350      O1354   1.371       .  S
O1352      H1356   0.991       .  S
O1354      H1355   0.991       .  S
