geometry optimzed in LAMMPS
_audit_creation_date              2020-12-01 
_audit_creation_method            'lammps2cif' 
_symmetry_space_group_name_H-M    'P1' 
_symmetry_Int_Tables_number       1 
_symmetry_cell_setting            triclinic 
loop_ 
_symmetry_equiv_pos_as_xyz 
  x,y,z 
_cell_length_a                    50.96336799 
_cell_length_b                    50.901027349866105 
_cell_length_c                    50.92300466818067 
_cell_angle_alpha                 90.02154717036709 
_cell_angle_beta                  89.99314292570095 
_cell_angle_gamma                 89.93689819952287 
loop_ 
_atom_site_label 
_atom_site_type_symbol 
_atom_site_fract_x 
_atom_site_fract_y 
_atom_site_fract_z 
_atom_site_charge 
O1          O  0.03220727  0.50458199  0.83796705    -0.72100
O2          O  0.05150357  0.46559773  0.89912153    -0.72300
O3          O  0.07630198  0.48222613  0.85595911    -0.72200
O4          O  0.00752546  0.48851049  0.88228764    -0.72200
O5          O  0.99581949  0.45267780  0.86240658    -0.72200
O6          O  0.06618990  0.44573491  0.83652394    -0.72200
O7          O  0.03969240  0.42977186  0.87912160    -0.72100
O8          O  0.02182203  0.46823471  0.81843644    -0.72300
V9          V  0.04158181  0.48460510  0.86832632     1.35200
V10         V  0.03106479  0.44987205  0.84935715     1.35200
C11         C  0.02436574  0.49287186  0.81741906     0.77100
C12         C  0.04816289  0.44094995  0.89948715     0.77200
C13         C  0.08345042  0.46263778  0.84260247     0.77100
C14         C  0.99037314  0.47111967  0.87829253     0.77000
O15         O  0.02685989  0.33970105  0.03567448    -0.72100
O16         O  0.06473126  0.40187998  0.05234987    -0.72300
O17         O  0.04245862  0.38268291  0.00917224    -0.72200
O18         O  0.04863088  0.35970931  0.07913104    -0.72200
O19         O  0.08403092  0.33820723  0.06920884    -0.72200
O20         O  0.08041473  0.36559558  0.99970801    -0.72200
O21         O  0.10131113  0.38132806  0.04487576    -0.72100
O22         O  0.06331249  0.32101481  0.02393347    -0.72300
V23         V  0.04633259  0.37054812  0.04385025     1.35200
V24         V  0.08149939  0.35175829  0.03452431     1.35200
C25         C  0.03877182  0.31954008  0.02724821     0.77100
C26         C  0.08956382  0.40215377  0.05135968     0.77200
C27         C  0.06096923  0.37959414  0.99305934     0.77100
C28         C  0.06736905  0.34521573  0.08630006     0.77000
O29         O  0.82931649  0.49409168  0.99876395    -0.72100
O30         O  0.89262371  0.48101899  0.96106535    -0.72300
O31         O  0.87143153  0.52279362  0.98458668    -0.72200
O32         O  0.85135631  0.45213474  0.97546735    -0.72200
O33         O  0.82859783  0.46281117  0.94099855    -0.72200
O34         O  0.85548075  0.53256620  0.94627572    -0.72200
O35         O  0.87196462  0.48759925  0.92436275    -0.72100
O36         O  0.81102515  0.50769112  0.96285053    -0.72300
V37         V  0.86070728  0.48774263  0.97933438     1.35200
V38         V  0.84199007  0.49758240  0.94433780     1.35200
C39         C  0.80922444  0.50323517  0.98725103     0.77100
C40         C  0.89293855  0.48159000  0.93618964     0.77200
C41         C  0.86866308  0.53926487  0.96628701     0.77100
C42         C  0.83678703  0.44532028  0.95667196     0.77000
O43         O  0.18892978  0.54186686  0.02980816    -0.72100
O44         O  0.12489394  0.55490410  0.06639191    -0.72300
O45         O  0.16615448  0.58370648  0.05189024    -0.72200
O46         O  0.14647477  0.51325673  0.04363202    -0.72200
O47         O  0.16435618  0.50307608  0.08104618    -0.72200
O48         O  0.18633135  0.57428704  0.08822676    -0.72200
O49         O  0.14461907  0.54637187  0.10320948    -0.72100
O50         O  0.20727177  0.53111343  0.06674039    -0.72300
V51         V  0.15710104  0.54815330  0.04857623     1.35200
V52         V  0.17540003  0.53879865  0.08402825     1.35200
C53         C  0.20931087  0.53505528  0.04238366     0.77100
C54         C  0.12400969  0.55293794  0.09118853     0.77200
C55         C  0.17918108  0.59124547  0.07147206     0.77100
C56         C  0.15030473  0.49667902  0.06155881     0.77000
O57         O  0.98745706  0.53142939  0.19270439    -0.72100
O58         O  0.96889714  0.56937652  0.13096822    -0.72300
O59         O  0.01242579  0.54670394  0.14846274    -0.72200
O60         O  0.94360642  0.55365992  0.17422047    -0.72200
O61         O  0.95436142  0.58965057  0.19439016    -0.72200
O62         O  0.02353701  0.58367095  0.16665550    -0.72200
O63         O  0.97862234  0.60590137  0.15067894    -0.72100
O64         O  0.99919111  0.56787948  0.21129338    -0.72300
V65         V  0.97837528  0.55094686  0.16207178     1.35200
V66         V  0.98879946  0.58602675  0.18048366     1.35200
C67         C  0.99593980  0.54333746  0.21286315     0.77100
C68         C  0.97080722  0.59416985  0.13028232     0.77200
C69         C  0.02925460  0.56449547  0.15186478     0.77100
C70         C  0.93702125  0.57292321  0.18829882     0.77000
O71         O  0.99172955  0.69729890  0.99310074    -0.72100
O72         O  0.95297775  0.63524350  0.97560100    -0.72300
O73         O  0.96815426  0.67859953  0.94999935    -0.72200
O74         O  0.97691513  0.65277418  0.01868246    -0.72200
O75         O  0.94120122  0.67236806  0.03131105    -0.72200
O76         O  0.93172902  0.69750387  0.96122082    -0.72200
O77         O  0.91720935  0.65472003  0.98836693    -0.72100
O78         O  0.95536826  0.71630453  0.00441416    -0.72300
V79         V  0.97183166  0.66645992  0.98468036     1.35200
V80         V  0.93715861  0.68498107  0.99615360     1.35200
C81         C  0.97979584  0.71788346  0.00062038     0.77100
C82         C  0.92845131  0.63445993  0.97963044     0.77200
C83         C  0.94819789  0.69171361  0.94347633     0.77100
C84         C  0.95995604  0.65676895  0.03628547     0.77000
O85         O  0.82588914  0.54029147  0.52682599    -0.72100
O86         O  0.89000258  0.54862999  0.56517267    -0.72300
O87         O  0.86525917  0.50838946  0.54210080    -0.72200
O88         O  0.85154449  0.58066484  0.54906671    -0.72200
O89         O  0.82736561  0.57300101  0.58334576    -0.72200
O90         O  0.84853270  0.50113217  0.58068472    -0.72200
O91         O  0.86789987  0.54514735  0.60154264    -0.72100
O92         O  0.80663055  0.52911536  0.56311582    -0.72300
V93         V  0.85774706  0.54430908  0.54639931     1.35200
V94         V  0.83787946  0.53714160  0.58143599     1.35200
C95         C  0.80511951  0.53348465  0.53878121     0.77100
C96         C  0.88944475  0.54893632  0.59007670     0.77200
C97         C  0.86090705  0.49276897  0.56077330     0.77100
C98         C  0.83703751  0.58924009  0.56715893     0.77000
O99         O  0.99117065  0.34283767  0.53356700    -0.72100
O100        O  0.94755120  0.40123374  0.55205252    -0.72300
O101        O  0.96697237  0.35954619  0.57700141    -0.72200
O102        O  0.97239343  0.38597250  0.50860238    -0.72200
O103        O  0.93878445  0.36291121  0.49612082    -0.72200
O104        O  0.93148489  0.33839680  0.56685452    -0.72200
O105        O  0.91347995  0.37919768  0.53893501    -0.72100
O106        O  0.95628700  0.32065802  0.52360645    -0.72300
V107        V  0.96892712  0.37186672  0.54246885     1.35200
V108        V  0.93575219  0.35055991  0.53152921     1.35200
C109        C  0.98089782  0.32131074  0.52632399     0.77100
C110        C  0.92299628  0.40002205  0.54827056     0.77200
C111        C  0.94784592  0.34574216  0.58416033     0.77100
C112        C  0.95608041  0.38007257  0.49101465     0.77000
O113        O  0.98962976  0.50125141  0.33259737    -0.72100
O114        O  0.96917264  0.46519651  0.39509805    -0.72300
O115        O  0.01384050  0.48531112  0.37725812    -0.72200
O116        O  0.94479340  0.48176831  0.35155000    -0.72200
O117        O  0.95313546  0.44438247  0.33285029    -0.72200
O118        O  0.02338338  0.44801823  0.35873979    -0.72200
O119        O  0.97807942  0.42805681  0.37615375    -0.72100
O120        O  0.99832347  0.46374155  0.31439069    -0.72300
V121        V  0.97962595  0.48271295  0.36367243     1.35200
V122        V  0.98816022  0.44682851  0.34580274     1.35200
C123        C  0.99645265  0.48836456  0.31237626     0.77100
C124        C  0.97035262  0.44033783  0.39623712     0.77200
C125        C  0.02992675  0.46686817  0.37361317     0.77100
C126        C  0.93687416  0.46243984  0.33829372     0.77000
O127        O  0.18630458  0.49722806  0.49756616    -0.72100
O128        O  0.12504791  0.47730766  0.45956270    -0.72300
O129        O  0.16914822  0.45327394  0.47486840    -0.72200
O130        O  0.14118450  0.52114760  0.48279283    -0.72200
O131        O  0.15918188  0.53365571  0.44625234    -0.72200
O132        O  0.18818094  0.46471483  0.43855655    -0.72200
O133        O  0.14397142  0.48896933  0.42324432    -0.72100
O134        O  0.20458328  0.50945821  0.46113942    -0.72300
V135        V  0.15587740  0.48757838  0.47802410     1.35200
V136        V  0.17374051  0.49907497  0.44304576     1.35200
C137        C  0.20638566  0.50574460  0.48560094     0.77100
C138        C  0.12401039  0.48000500  0.43485223     0.77200
C139        C  0.18306990  0.44708799  0.45540591     0.77100
C140        C  0.14396490  0.53850678  0.46537184     0.77000
O141        O  0.02691936  0.53052594  0.69521806    -0.72100
O142        O  0.04243013  0.56817193  0.63187700    -0.72300
O143        O  0.06886225  0.55518625  0.67537705    -0.72200
O144        O  0.00059937  0.54261323  0.65065285    -0.72200
O145        O  0.98647281  0.57824778  0.66921038    -0.72200
O146        O  0.05641524  0.59193657  0.69306276    -0.72200
O147        O  0.02791590  0.60379741  0.65038880    -0.72100
O148        O  0.01463596  0.56717282  0.71327448    -0.72300
V149        V  0.03435549  0.54975779  0.66372397     1.35200
V150        V  0.02154427  0.58451348  0.68125022     1.35200
C151        C  0.01912476  0.54290736  0.71541860     0.77100
C152        C  0.03724839  0.59251927  0.63044975     0.77200
C153        C  0.07467747  0.57584319  0.68765635     0.77100
C154        C  0.98208448  0.55855015  0.65453297     0.77000
O155        O  0.01656235  0.69405070  0.49253256    -0.72100
O156        O  0.05459449  0.63103822  0.47749956    -0.72300
O157        O  0.03176565  0.65120435  0.52019263    -0.72200
O158        O  0.03880571  0.67291339  0.44979708    -0.72200
O159        O  0.07368000  0.69508910  0.45974755    -0.72200
O160        O  0.07003883  0.66752993  0.52941432    -0.72200
O161        O  0.09110968  0.65204065  0.48396229    -0.72100
O162        O  0.05286530  0.71228523  0.50513013    -0.72300
V163        V  0.03605959  0.66273705  0.48525772     1.35200
V164        V  0.07114724  0.68151762  0.49453045     1.35200
C165        C  0.02846352  0.71422672  0.50098692     0.77100
C166        C  0.07948303  0.63107804  0.47783526     0.77200
C167        C  0.05039375  0.65388828  0.53625753     0.77100
C168        C  0.05747048  0.68737431  0.44249358     0.77000
O169        O  0.52471141  0.54320661  0.83391671    -0.72100
O170        O  0.54145341  0.58298643  0.89523533    -0.72300
O171        O  0.49809284  0.56036650  0.87675705    -0.72200
O172        O  0.56777376  0.56522687  0.85360537    -0.72200
O173        O  0.55905732  0.60186980  0.83366558    -0.72200
O174        O  0.48768486  0.59586881  0.85536880    -0.72200
O175        O  0.53050534  0.61875692  0.87466730    -0.72100
O176        O  0.51622401  0.57943088  0.81320104    -0.72300
V177        V  0.53266264  0.56359123  0.86439939     1.35200
V178        V  0.52345904  0.59822824  0.84450081     1.35200
C179        C  0.51895789  0.55476244  0.81261423     0.77100
C180        C  0.53874807  0.60772889  0.89525141     0.77200
C181        C  0.48143686  0.57777345  0.87122442     0.77100
C182        C  0.57560979  0.58447384  0.84026090     0.77000
O183        O  0.32945284  0.54535842  0.99980525    -0.72100
O184        O  0.38982050  0.56518534  0.96002036    -0.72300
O185        O  0.34614088  0.58911917  0.97618204    -0.72200
O186        O  0.37434682  0.52152912  0.98451136    -0.72200
O187        O  0.35491531  0.50824310  0.94901447    -0.72200
O188        O  0.32703978  0.57752049  0.93999921    -0.72200
O189        O  0.37024669  0.55204798  0.92460822    -0.72100
O190        O  0.31037847  0.53344399  0.96371764    -0.72300
V191        V  0.35949629  0.55495002  0.97949731     1.35200
V192        V  0.34090712  0.54294612  0.94509673     1.35200
C193        C  0.30913065  0.53682474  0.98819780     0.77100
C194        C  0.39019881  0.56195662  0.93532374     0.77200
C195        C  0.33261976  0.59537050  0.95649393     0.77100
C196        C  0.37064157  0.50369296  0.96779950     0.77000
O197        O  0.48745944  0.34034660  0.99357863    -0.72100
O198        O  0.45242499  0.40537152  0.98035966    -0.72300
O199        O  0.47328319  0.38240256  0.02257547    -0.72200
O200        O  0.46743084  0.36429228  0.95131699    -0.72200
O201        O  0.43155345  0.34281796  0.95934495    -0.72200
O202        O  0.43410657  0.36737135  0.03010843    -0.72200
O203        O  0.41504770  0.38549348  0.98490314    -0.72100
O204        O  0.45016047  0.32309019  0.00446996    -0.72300
V205        V  0.46950298  0.37268354  0.98717614     1.35200
V206        V  0.43347969  0.35489773  0.99468596     1.35200
C207        C  0.47452423  0.32035255  0.00089215     0.77100
C208        C  0.42755002  0.40619439  0.97982726     0.77200
C209        C  0.45410580  0.37988935  0.03796005     0.77100
C210        C  0.44868847  0.35049451  0.94302896     0.77000
O211        O  0.48225507  0.51030774  0.18889616    -0.72100
O212        O  0.46465362  0.46795183  0.12939627    -0.72300
O213        O  0.43989261  0.48388376  0.17293678    -0.72200
O214        O  0.50705077  0.49510096  0.14433505    -0.72200
O215        O  0.52216122  0.46091803  0.16480040    -0.72200
O216        O  0.45384213  0.44895657  0.19299036    -0.72200
O217        O  0.48000010  0.43386104  0.14997566    -0.72100
O218        O  0.49637647  0.47555129  0.20899555    -0.72300
V219        V  0.47384215  0.48871838  0.15934160     1.35200
V220        V  0.48785600  0.45555821  0.17888474     1.35200
C221        C  0.49157314  0.49987592  0.20952211     0.77100
C222        C  0.46977917  0.44357471  0.12964778     0.77200
C223        C  0.43512167  0.46439362  0.18735919     0.77100
C224        C  0.52576878  0.47945586  0.14857663     0.77000
O225        O  0.52440649  0.70108508  0.03687667    -0.72100
O226        O  0.56602827  0.63980066  0.04914720    -0.72300
O227        O  0.54947414  0.68006390  0.07810581    -0.72200
O228        O  0.54004348  0.65998764  0.00765726    -0.72200
O229        O  0.57616281  0.67978282  0.99658911    -0.72200
O230        O  0.58357821  0.70336778  0.06752371    -0.72200
O231        O  0.60100160  0.66211022  0.03944763    -0.72100
O232        O  0.55935240  0.72200448  0.02460195    -0.72300
V233        V  0.54564452  0.67068605  0.04263600     1.35200
V234        V  0.57931887  0.69146827  0.03216661     1.35200
C235        C  0.53494992  0.72219688  0.02897790     0.77100
C236        C  0.59079763  0.64082585  0.04697977     0.77200
C237        C  0.56797188  0.69491526  0.08496862     0.77100
C238        C  0.55671311  0.66561365  0.99029623     0.77000
O239        O  0.68909890  0.50039165  0.03088908    -0.72100
O240        O  0.62433820  0.49101146  0.06735566    -0.72300
O241        O  0.64864636  0.53170809  0.04481981    -0.72200
O242        O  0.66394517  0.45963490  0.05294641    -0.72200
O243        O  0.68597566  0.46787987  0.08850445    -0.72200
O244        O  0.66522455  0.53988291  0.08328944    -0.72200
O245        O  0.64473049  0.49641846  0.10437618    -0.72100
O246        O  0.70778062  0.51107132  0.06768024    -0.72300
V247        V  0.65696319  0.49589399  0.04966770     1.35200
V248        V  0.67567905  0.50378705  0.08520777     1.35200
C249        C  0.70967286  0.50688161  0.04327241     0.77100
C250        C  0.62372443  0.49155363  0.09223523     0.77200
C251        C  0.65278112  0.54775092  0.06321318     0.77100
C252        C  0.67738178  0.45134264  0.07201321     0.77000
O253        O  0.48855445  0.69923570  0.53254264    -0.72100
O254        O  0.44496515  0.64098418  0.55143912    -0.72300
O255        O  0.47013765  0.65545637  0.50785075    -0.72200
O256        O  0.46384009  0.68339068  0.57607948    -0.72200
O257        O  0.42849809  0.70416417  0.56465197    -0.72200
O258        O  0.43673252  0.67846590  0.49459782    -0.72200
O259        O  0.41100830  0.66263513  0.53743999    -0.72100
O260        O  0.45366213  0.72115092  0.52180551    -0.72300
V261        V  0.46630349  0.67024818  0.54160268     1.35200
V262        V  0.43321144  0.69126240  0.52978902     1.35200
C263        C  0.47819026  0.72071694  0.52520200     0.77100
C264        C  0.42047212  0.64194432  0.54716717     0.77200
C265        C  0.45409504  0.66123854  0.48990563     0.77100
C266        C  0.44481485  0.69786889  0.58239684     0.77000
O267        O  0.48496850  0.53981888  0.33034320    -0.72100
O268        O  0.46659541  0.57614306  0.39336854    -0.72300
O269        O  0.44120564  0.56148973  0.35006131    -0.72200
O270        O  0.51021816  0.55386841  0.37486883    -0.72200
O271        O  0.52139970  0.59094281  0.35701508    -0.72200
O272        O  0.45108955  0.59863963  0.33157125    -0.72200
O273        O  0.47702219  0.61305403  0.37491684    -0.72100
O274        O  0.49527741  0.57710302  0.31241365    -0.72300
V275        V  0.47605517  0.55849783  0.36167307     1.35200
V276        V  0.48614543  0.59414920  0.34420210     1.35200
C277        C  0.49242809  0.55255519  0.31029551     0.77100
C278        C  0.46852909  0.60093353  0.39479927     0.77200
C279        C  0.43400490  0.58160273  0.33759782     0.77100
C280        C  0.52711197  0.57159043  0.37164650     0.77000
O281        O  0.68545751  0.54340502  0.49384417    -0.72100
O282        O  0.62347118  0.55891233  0.45487488    -0.72300
O283        O  0.64341261  0.51608682  0.47748334    -0.72200
O284        O  0.66477510  0.58632523  0.47211088    -0.72200
O285        O  0.68758545  0.57720837  0.43727739    -0.72200
O286        O  0.66095059  0.50705612  0.43961879    -0.72200
O287        O  0.64487850  0.55237475  0.41864601    -0.72100
O288        O  0.70483412  0.53179642  0.45776641    -0.72300
V289        V  0.65470775  0.55094191  0.47388623     1.35200
V290        V  0.67428800  0.54219749  0.43902897     1.35200
C291        C  0.70599545  0.53531474  0.48231431     0.77100
C292        C  0.62371500  0.55853196  0.42996266     0.77200
C293        C  0.64715787  0.50000970  0.45908562     0.77100
C294        C  0.67996743  0.59387987  0.45416093     0.77000
O295        O  0.52322488  0.34436237  0.49145000    -0.72100
O296        O  0.56194630  0.40639252  0.47336556    -0.72300
O297        O  0.54756928  0.36251389  0.44848728    -0.72200
O298        O  0.53695774  0.38972404  0.51639153    -0.72200
O299        O  0.57272036  0.37103577  0.53011647    -0.72200
O300        O  0.58372703  0.34392940  0.46110147    -0.72200
O301        O  0.59740423  0.38711810  0.48708715    -0.72100
O302        O  0.55951827  0.32622766  0.50431584    -0.72300
V303        V  0.54298283  0.37529181  0.48281359     1.35200
V304        V  0.57751404  0.35731677  0.49549571     1.35200
C305        C  0.53529860  0.32417180  0.49982362     0.77100
C306        C  0.58648710  0.40708195  0.47749298     0.77200
C307        C  0.56781314  0.34948499  0.44279637     0.77100
C308        C  0.55377468  0.38664799  0.53429345     0.77000
O309        O  0.53067354  0.51240988  0.69124582    -0.72100
O310        O  0.54673557  0.47289081  0.62949659    -0.72300
O311        O  0.50425134  0.49738698  0.64755771    -0.72200
O312        O  0.57343513  0.48837257  0.67214912    -0.72200
O313        O  0.56200978  0.45239539  0.69184180    -0.72200
O314        O  0.49183316  0.46175422  0.66741005    -0.72200
O315        O  0.53488055  0.43723402  0.64961583    -0.72100
O316        O  0.51919716  0.47638075  0.71081747    -0.72300
V317        V  0.53846348  0.49213826  0.66058959     1.35200
V318        V  0.52712617  0.45770701  0.67963179     1.35200
C319        C  0.52292825  0.50088211  0.71192032     0.77100
C320        C  0.54349802  0.44820106  0.62917704     0.77200
C321        C  0.48657386  0.48066636  0.65208751     0.77100
C322        C  0.57979704  0.46864239  0.68568683     0.77000
O323        O  0.32572093  0.50165779  0.53074409    -0.72100
O324        O  0.38971431  0.49144678  0.56812436    -0.72300
O325        O  0.35041763  0.46048528  0.55221749    -0.72200
O326        O  0.36563408  0.53250046  0.54603864    -0.72200
O327        O  0.34869713  0.53984200  0.58452757    -0.72200
O328        O  0.32759309  0.46805476  0.58737538    -0.72200
O329        O  0.36873887  0.49575449  0.60497140    -0.72100
O330        O  0.30653478  0.51200401  0.56728944    -0.72300
V331        V  0.35744384  0.49669131  0.54996384     1.35200
V332        V  0.33814453  0.50385086  0.58532222     1.35200
C333        C  0.30503068  0.50853619  0.54274930     0.77100
C334        C  0.39005423  0.49160931  0.59301613     0.77200
C335        C  0.33641304  0.45186165  0.57064605     0.77100
C336        C  0.36122497  0.54812570  0.56471279     0.77000
O337        O  0.52542517  0.84066303  0.53196016    -0.72100
O338        O  0.56691752  0.90117722  0.54680527    -0.72300
O339        O  0.54259625  0.88294226  0.50447411    -0.72200
O340        O  0.54932972  0.86019317  0.57445082    -0.72200
O341        O  0.58447286  0.83824425  0.56463849    -0.72200
O342        O  0.57791119  0.86161402  0.49348563    -0.72200
O343        O  0.60212650  0.87928440  0.53683559    -0.72100
O344        O  0.56067070  0.81929690  0.52137812    -0.72300
V345        V  0.54669964  0.87069123  0.53913399     1.35200
V346        V  0.58054902  0.84989625  0.52917259     1.35200
C347        C  0.53610086  0.81929332  0.52485149     0.77100
C348        C  0.59164196  0.90051488  0.54422921     0.77200
C349        C  0.55968758  0.87749024  0.48745995     0.77100
C350        C  0.56824505  0.84605556  0.58185250     0.77000
O351        O  0.52731744  0.00000904  0.32960689    -0.72100
O352        O  0.54506162  0.96287429  0.39228908    -0.72300
O353        O  0.57080264  0.97817818  0.34919822    -0.72200
O354        O  0.50161471  0.98581186  0.37340879    -0.72200
O355        O  0.49074389  0.94832883  0.35622038    -0.72200
O356        O  0.56057903  0.94181640  0.32946861    -0.72200
O357        O  0.53545108  0.92625745  0.37281658    -0.72100
O358        O  0.51577530  0.96324410  0.31155521    -0.72300
V359        V  0.53591158  0.98102628  0.36072745     1.35200
V360        V  0.52573893  0.94567112  0.34277243     1.35200
C361        C  0.51900781  0.98773258  0.30958229     0.77100
C362        C  0.54357567  0.93799652  0.39305070     0.77200
C363        C  0.57776808  0.95877776  0.33555217     0.77100
C364        C  0.48463465  0.96818855  0.36997946     0.77000
O365        O  0.49656105  0.20233131  0.49462134    -0.72100
O366        O  0.46119649  0.13807345  0.47884175    -0.72300
O367        O  0.47477972  0.18098507  0.45180019    -0.72200
O368        O  0.48369138  0.15807722  0.52149245    -0.72200
O369        O  0.44608189  0.17480512  0.53262315    -0.72200
O370        O  0.43808571  0.19991663  0.46214133    -0.72200
O371        O  0.42414251  0.15679537  0.48842960    -0.72100
O372        O  0.45944498  0.21956220  0.50622563    -0.72300
V373        V  0.47841900  0.17034886  0.48701784     1.35200
V374        V  0.44274101  0.18756821  0.49728811     1.35200
C375        C  0.48372390  0.22231727  0.50227558     0.77100
C376        C  0.43643240  0.13670562  0.48075397     0.77200
C377        C  0.45478765  0.19372417  0.44471169     0.77100
C378        C  0.46576655  0.16062543  0.53836245     0.77000
O379        O  0.33452695  0.00086624  0.50038113    -0.72100
O380        O  0.39371362  0.98143139  0.45817432    -0.72300
O381        O  0.37894621  0.02487320  0.48348082    -0.72200
O382        O  0.35071532  0.95710850  0.47559986    -0.72200
O383        O  0.33100843  0.96899856  0.43980160    -0.72200
O384        O  0.35741154  0.03867616  0.44938267    -0.72200
O385        O  0.37313046  0.99597827  0.42371325    -0.72100
O386        O  0.31387520  0.01231204  0.46501480    -0.72300
V387        V  0.36396799  0.99141551  0.47883197     1.35200
V388        V  0.34409777  0.00378109  0.44524652     1.35200
C389        C  0.31366283  0.00929598  0.48959621     0.77100
C390        C  0.39340184  0.98597973  0.43370357     0.77200
C391        C  0.37416911  0.04296310  0.46727763     0.77100
C392        C  0.33719838  0.95094282  0.45586352     0.77000
O393        O  0.49133726  0.03229192  0.69371351    -0.72100
O394        O  0.47447798  0.07128290  0.63178423    -0.72300
O395        O  0.51699268  0.04653173  0.64938512    -0.72200
O396        O  0.44870411  0.05633242  0.67506275    -0.72200
O397        O  0.46058202  0.09208797  0.69488987    -0.72200
O398        O  0.52982430  0.08285967  0.66756982    -0.72200
O399        O  0.48608210  0.10723733  0.65150931    -0.72100
O400        O  0.50411335  0.06840555  0.71237884    -0.72300
V401        V  0.48321922  0.05227058  0.66293578     1.35200
V402        V  0.49505656  0.08688443  0.68132729     1.35200
C403        C  0.49957170  0.04406326  0.71406273     0.77100
C404        C  0.47750132  0.09600620  0.63117016     0.77200
C405        C  0.53466113  0.06351946  0.65259127     0.77100
C406        C  0.44267292  0.07584780  0.68896157     0.77000
O407        O  0.69472833  0.03976008  0.53049435    -0.72100
O408        O  0.63024129  0.05254976  0.56638430    -0.72300
O409        O  0.67246295  0.08115140  0.55402587    -0.72200
O410        O  0.65159340  0.01142620  0.54215439    -0.72200
O411        O  0.66845239  0.99915401  0.57933890    -0.72200
O412        O  0.69161731  0.06996726  0.59031984    -0.72200
O413        O  0.64908357  0.04207658  0.60320058    -0.72100
O414        O  0.71241041  0.02729540  0.56722209    -0.72300
V415        V  0.66272683  0.04591791  0.54894536     1.35200
V416        V  0.68015894  0.03470977  0.58426335     1.35200
C417        C  0.71481115  0.03205184  0.54301349     0.77100
C418        C  0.62890320  0.04966977  0.59105727     0.77200
C419        C  0.68519038  0.08781033  0.57416094     0.77100
C420        C  0.65479220  0.99377889  0.55918855     0.77000
O421        O  0.48560720  0.84125304  0.03725100    -0.72100
O422        O  0.44069840  0.89924879  0.05319112    -0.72300
O423        O  0.45793384  0.85679118  0.07886672    -0.72200
O424        O  0.46893775  0.88479063  0.01160389    -0.72200
O425        O  0.43580470  0.86284700  0.99629186    -0.72200
O426        O  0.42413931  0.83495607  0.06511157    -0.72200
O427        O  0.40750625  0.87713506  0.03803898    -0.72100
O428        O  0.45192164  0.81953566  0.02303929    -0.72300
V429        V  0.46269151  0.87001994  0.04486540     1.35200
V430        V  0.43054329  0.84894144  0.03083594     1.35200
C431        C  0.47614629  0.82004935  0.02823364     0.77100
C432        C  0.41647629  0.89805143  0.04775523     0.77200
C433        C  0.43916905  0.84150537  0.08384168     0.77100
C434        C  0.45362308  0.87989245  0.99285091     0.77000
O435        O  0.31968349  0.03877407  0.02940452    -0.72100
O436        O  0.38416229  0.04877549  0.06584364    -0.72300
O437        O  0.35997271  0.00788118  0.04367039    -0.72200
O438        O  0.34464732  0.07977800  0.05071381    -0.72200
O439        O  0.32273314  0.07187212  0.08636842    -0.72200
O440        O  0.34323568  0.99987529  0.08204246    -0.72200
O441        O  0.36362280  0.04359224  0.10284767    -0.72100
O442        O  0.30095121  0.02837715  0.06622991    -0.72300
V443        V  0.35168734  0.04358602  0.04808013     1.35200
V444        V  0.33289245  0.03598843  0.08362999     1.35200
C445        C  0.29919180  0.03202338  0.04177231     0.77100
C446        C  0.38465187  0.04830202  0.09072547     0.77200
C447        C  0.35569731  0.99185574  0.06203111     0.77100
C448        C  0.33110738  0.08824589  0.06959334     0.77000
O449        O  0.48557918  0.00298627  0.83576732    -0.72100
O450        O  0.46647314  0.96398705  0.89688413    -0.72300
O451        O  0.51051722  0.98535474  0.87932554    -0.72200
O452        O  0.44121721  0.98225083  0.85466512    -0.72200
O453        O  0.44971333  0.94611235  0.83370687    -0.72200
O454        O  0.52012625  0.94869681  0.85963501    -0.72200
O455        O  0.47498540  0.92776495  0.87609679    -0.72100
O456        O  0.49504388  0.96656724  0.81586362    -0.72300
V457        V  0.47621660  0.98299196  0.86612413     1.35200
V458        V  0.48487173  0.94804759  0.84656054     1.35200
C459        C  0.49303888  0.99130663  0.81504861     0.77100
C460        C  0.46763041  0.93909048  0.89687471     0.77200
C461        C  0.52653845  0.96695323  0.87531333     0.77100
C462        C  0.43326898  0.96351048  0.84065970     0.77000
O463        O  0.52493281  0.03098635  0.18926678    -0.72100
O464        O  0.53928342  0.07089439  0.12715628    -0.72300
O465        O  0.56669319  0.05554499  0.16904577    -0.72200
O466        O  0.49761143  0.04544358  0.14611573    -0.72200
O467        O  0.48489685  0.08111272  0.16574003    -0.72200
O468        O  0.55537561  0.09126388  0.18936032    -0.72200
O469        O  0.52711578  0.10621518  0.14784167    -0.72100
O470        O  0.51289108  0.06694339  0.20872195    -0.72300
V471        V  0.53178309  0.05132852  0.15837102     1.35200
V472        V  0.52022224  0.08560275  0.17765902     1.35200
C473        C  0.51733045  0.04262884  0.20997458     0.77100
C474        C  0.53574900  0.09557644  0.12726857     0.77200
C475        C  0.57321046  0.07535290  0.18224283     0.77100
C476        C  0.47981674  0.06203961  0.15054721     0.77000
O477        O  0.51457162  0.19904948  0.98958007    -0.72100
O478        O  0.55118496  0.13456834  0.97752273    -0.72300
O479        O  0.52838379  0.15712724  0.01899121    -0.72200
O480        O  0.53658515  0.17541784  0.94790524    -0.72200
O481        O  0.57091054  0.19869084  0.95772900    -0.72200
O482        O  0.56748888  0.17171590  0.02754976    -0.72200
O483        O  0.58800991  0.15555048  0.98207860    -0.72100
O484        O  0.55098059  0.21625825  0.00323554    -0.72300
V485        V  0.53325908  0.16695733  0.98372049     1.35200
V486        V  0.56862623  0.18533210  0.99258804     1.35200
C487        C  0.52683259  0.21888147  0.99840429     0.77100
C488        C  0.57607700  0.13447889  0.97707137     0.77200
C489        C  0.54713795  0.15946251  0.03491540     0.77100
C490        C  0.55491552  0.19030435  0.94063270     0.77000
O491        O  0.68190912  0.99933851  0.00067879    -0.72100
O492        O  0.61951046  0.97982560  0.96377015    -0.72300
O493        O  0.66326410  0.95539052  0.97870470    -0.72200
O494        O  0.63678235  0.02366224  0.98658899    -0.72200
O495        O  0.65320909  0.03516526  0.94900486    -0.72200
O496        O  0.68293701  0.96651734  0.94254690    -0.72200
O497        O  0.63864045  0.98973065  0.92705729    -0.72100
O498        O  0.69904993  0.01198063  0.96383746    -0.72300
V499        V  0.65082504  0.98989753  0.98179990     1.35200
V500        V  0.66824287  0.00077856  0.94639982     1.35200
C501        C  0.70154460  0.00828028  0.98820995     0.77100
C502        C  0.61870511  0.98110097  0.93889759     0.77200
C503        C  0.67693735  0.94898487  0.95916605     0.77100
C504        C  0.63858810  0.04039425  0.96849228     0.77000
O505        O  0.99440595  0.19914172  0.03313814    -0.72100
O506        O  0.95331073  0.13834165  0.04739957    -0.72300
O507        O  0.97844679  0.15674938  0.00550092    -0.72200
O508        O  0.96967242  0.17973391  0.07510790    -0.72200
O509        O  0.93519444  0.20201344  0.06393429    -0.72200
O510        O  0.94263106  0.17670249  0.99377060    -0.72200
O511        O  0.91802637  0.16006402  0.03733468    -0.72100
O512        O  0.95930273  0.21965771  0.02056676    -0.72300
V513        V  0.97332330  0.16899178  0.03997882     1.35200
V514        V  0.93950864  0.18929756  0.02901801     1.35200
C515        C  0.98371596  0.22006656  0.02492209     0.77100
C516        C  0.92858312  0.13896501  0.04496908     0.77200
C517        C  0.96149021  0.16147430  0.98811362     0.77100
C518        C  0.95095327  0.19448022  0.08167538     0.77000
O519        O  0.82252014  0.00335543  0.02812625    -0.72100
O520        O  0.88632925  0.98808037  0.06445938    -0.72300
O521        O  0.84371936  0.96087440  0.05036843    -0.72200
O522        O  0.86621995  0.03032956  0.04141518    -0.72200
O523        O  0.85022970  0.04129597  0.07942830    -0.72200
O524        O  0.82313530  0.97141042  0.08607743    -0.72200
O525        O  0.86686856  0.99640386  0.10146611    -0.72100
O526        O  0.80523252  0.01622661  0.06485184    -0.72300
V527        V  0.85423647  0.99594949  0.04676547     1.35200
V528        V  0.83659279  0.00625623  0.08222254     1.35200
C529        C  0.80265130  0.01176707  0.04059515     0.77100
C530        C  0.88732924  0.98952704  0.08930710     0.77200
C531        C  0.82966777  0.95399348  0.06944685     0.77100
C532        C  0.86400539  0.04706175  0.05948152     0.77000
O533        O  0.02690933  0.01125365  0.18703161    -0.72100
O534        O  0.04410337  0.96618645  0.12902570    -0.72300
O535        O  0.00118910  0.99290331  0.14381782    -0.72200
O536        O  0.06948496  0.98548741  0.17063009    -0.72200
O537        O  0.05742640  0.95168891  0.19349671    -0.72200
O538        O  0.98789838  0.95894374  0.16586904    -0.72200
O539        O  0.03122446  0.93269355  0.15205133    -0.72100
O540        O  0.01395035  0.97699061  0.20864711    -0.72300
V541        V  0.03499745  0.98838607  0.15807092     1.35200
V542        V  0.02279024  0.95581946  0.17964459     1.35200
C543        C  0.01861815  0.00130270  0.20836773     0.77100
C544        C  0.04079503  0.94155078  0.13106680     0.77200
C545        C  0.98318826  0.97677322  0.14909964     0.77100
C546        C  0.07544577  0.96730557  0.18622340     0.77000
O547        O  0.02220511  0.83861703  0.99513441    -0.72100
O548        O  0.05750185  0.90407479  0.98608151    -0.72300
O549        O  0.04248217  0.86502628  0.95418479    -0.72200
O550        O  0.03665206  0.87838068  0.02680980    -0.72200
O551        O  0.07632637  0.86390161  0.03286781    -0.72200
O552        O  0.07728298  0.84139926  0.96142503    -0.72200
O553        O  0.09482783  0.88355471  0.98781255    -0.72100
O554        O  0.05911664  0.82063678  0.00625667    -0.72300
V555        V  0.04033798  0.87110660  0.99071082     1.35200
V556        V  0.07620380  0.85260205  0.99705946     1.35200
C557        C  0.03469887  0.81831048  0.00243009     0.77100
C558        C  0.08232887  0.90479402  0.98484016     0.77200
C559        C  0.06049446  0.85045312  0.94546206     0.77100
C560        C  0.05611182  0.87533563  0.04178556     0.77000
O561        O  0.17819707  0.04615324  0.99937538    -0.72100
O562        O  0.11863680  0.06371488  0.95676395    -0.72300
O563        O  0.13422025  0.02101866  0.98362335    -0.72200
O564        O  0.16151065  0.08894430  0.97361885    -0.72200
O565        O  0.18165890  0.07623595  0.93834079    -0.72200
O566        O  0.15531891  0.00650074  0.94961774    -0.72200
O567        O  0.13962567  0.04877712  0.92273927    -0.72100
O568        O  0.19860666  0.03345086  0.96424713    -0.72300
V569        V  0.14856641  0.05460649  0.97772834     1.35200
V570        V  0.16847902  0.04147796  0.94446317     1.35200
C571        C  0.19895848  0.03740660  0.98866864     0.77100
C572        C  0.11921282  0.05884078  0.93232410     0.77200
C573        C  0.13940542  0.00221682  0.96833727     0.77100
C574        C  0.17562550  0.09461598  0.95413996     0.77000
O575        O  0.98538205  0.04114739  0.82728942    -0.72100
O576        O  0.97198159  0.07785101  0.89096311    -0.72300
O577        O  0.94316149  0.06225102  0.84994603    -0.72200
O578        O  0.01400023  0.05600050  0.86897170    -0.72200
O579        O  0.02222062  0.09475514  0.85310940    -0.72200
O580        O  0.95169499  0.09743464  0.82758636    -0.72200
O581        O  0.97715280  0.11486056  0.87048903    -0.72100
O582        O  0.99696670  0.07777495  0.80894537    -0.72300
V583        V  0.97882010  0.06000680  0.85885568     1.35200
V584        V  0.98692044  0.09550930  0.84024408     1.35200
C585        C  0.99332270  0.05328408  0.80707730     0.77100
C586        C  0.97237042  0.10272863  0.89156496     0.77200
C587        C  0.93518706  0.08040995  0.83520859     0.77100
C588        C  0.02969277  0.07486361  0.86610468     0.77000
O589        O  0.02912930  0.04098499  0.32994241    -0.72100
O590        O  0.04258536  0.07716937  0.39454066    -0.72300
O591        O  0.00007120  0.05663004  0.37136266    -0.72200
O592        O  0.07176877  0.06036803  0.35427553    -0.72200
O593        O  0.06498708  0.09602802  0.33183450    -0.72200
O594        O  0.99354052  0.09560102  0.35518450    -0.72200
O595        O  0.03893497  0.11410821  0.37371580    -0.72100
O596        O  0.01962281  0.07832525  0.31170864    -0.72300
V597        V  0.03569228  0.05942695  0.36208034     1.35200
V598        V  0.02929262  0.09526088  0.34336810     1.35200
C599        C  0.02222206  0.05375645  0.30964894     0.77100
C600        C  0.04367659  0.10211054  0.39479612     0.77200
C601        C  0.98495739  0.07586382  0.36772762     0.77100
C602        C  0.08075568  0.07873956  0.34042766     0.77000
O603        O  0.83436301  0.04349134  0.49769297    -0.72100
O604        O  0.89330691  0.06406339  0.45571049    -0.72300
O605        O  0.84957184  0.08757520  0.47326114    -0.72200
O606        O  0.87912540  0.02002867  0.48095280    -0.72200
O607        O  0.85789693  0.00602308  0.44686201    -0.72200
O608        O  0.83040663  0.07547042  0.43720317    -0.72200
O609        O  0.87315815  0.04925529  0.42122266    -0.72100
O610        O  0.81397926  0.03195090  0.46221612    -0.72300
V611        V  0.86366477  0.05343945  0.47628810     1.35200
V612        V  0.84415914  0.04087084  0.44261706     1.35200
C613        C  0.81361475  0.03500460  0.48678901     0.77100
C614        C  0.89317970  0.05986476  0.43114307     0.77200
C615        C  0.83565068  0.09344696  0.45368249     0.77100
C616        C  0.87426652  0.00158026  0.46511635     0.77000
O617        O  0.99157713  0.83741223  0.49238423    -0.72100
O618        O  0.95694424  0.90319783  0.48165586    -0.72300
O619        O  0.97760822  0.87821573  0.52298185    -0.72200
O620        O  0.97165796  0.86316332  0.45085650    -0.72200
O621        O  0.93592709  0.84113409  0.45819663    -0.72200
O622        O  0.93822896  0.86330686  0.52975385    -0.72200
O623        O  0.91936795  0.88337948  0.48488292    -0.72100
O624        O  0.95426635  0.81988895  0.50286643    -0.72300
V625        V  0.97377953  0.87007525  0.48714112     1.35200
V626        V  0.93766688  0.85217022  0.49388790     1.35200
C627        C  0.97874090  0.81731045  0.49956442     0.77100
C628        C  0.93208468  0.90427958  0.48091082     0.77200
C629        C  0.95853712  0.87480344  0.53833587     0.77100
C630        C  0.95302624  0.84944568  0.44215767     0.77000
O631        O  0.02737059  0.20241159  0.53342036    -0.72100
O632        O  0.06762290  0.14217331  0.55219845    -0.72300
O633        O  0.05224198  0.18610315  0.57653226    -0.72200
O634        O  0.04230339  0.15742354  0.50916139    -0.72200
O635        O  0.07742900  0.17694597  0.49501559    -0.72200
O636        O  0.08793804  0.20540636  0.56372183    -0.72200
O637        O  0.10290164  0.16168194  0.53849360    -0.72100
O638        O  0.06287737  0.22190754  0.52037984    -0.72300
V639        V  0.04803143  0.17250408  0.54245901     1.35200
V640        V  0.08204766  0.19120536  0.52952410     1.35200
C641        C  0.03846214  0.22288921  0.52466324     0.77100
C642        C  0.09221981  0.14172588  0.54858124     0.77200
C643        C  0.07183641  0.20014390  0.58195928     0.77100
C644        C  0.05872835  0.16100103  0.49102011     0.77000
O645        O  0.19420567  0.00494610  0.53229097    -0.72100
O646        O  0.13101323  0.98590961  0.56808093    -0.72300
O647        O  0.14913534  0.02975289  0.54607542    -0.72200
O648        O  0.17491750  0.96107990  0.55351540    -0.72200
O649        O  0.19187173  0.97080668  0.59131607    -0.72200
O650        O  0.16736399  0.04140338  0.58282113    -0.72200
O651        O  0.14885072  0.99758043  0.60493765    -0.72100
O652        O  0.21201933  0.01453668  0.56978834    -0.72300
V653        V  0.16277558  0.99575583  0.55065272     1.35200
V654        V  0.17983523  0.00602799  0.58641784     1.35200
C655        C  0.21437373  0.01163878  0.54527808     0.77100
C656        C  0.12927938  0.98851885  0.59281522     0.77200
C657        C  0.15233435  0.04678022  0.56369474     0.77100
C658        C  0.18674768  0.95371426  0.57393247     0.77000
O659        O  0.98894071  0.00489441  0.68840298    -0.72100
O660        O  0.96986721  0.96179919  0.62993426    -0.72300
O661        O  0.94592756  0.97897953  0.67332883    -0.72200
O662        O  0.01306453  0.98821898  0.64372508    -0.72200
O663        O  0.02804288  0.95502272  0.66591773    -0.72200
O664        O  0.95892843  0.94331494  0.69263336    -0.72200
O665        O  0.98601609  0.92793404  0.65020934    -0.72100
O666        O  0.00107133  0.96990242  0.70940216    -0.72300
V667        V  0.97986489  0.98289703  0.65928880     1.35200
V668        V  0.99333966  0.94977429  0.67922735     1.35200
C669        C  0.99681234  0.99431741  0.70955682     0.77100
C670        C  0.97488278  0.93740969  0.63022990     0.77200
C671        C  0.94055691  0.95929767  0.68730025     0.77100
C672        C  0.03173176  0.97279893  0.64888389     0.77000
O673        O  0.73656369  0.58794479  0.78076261    -0.72100
O674        O  0.72094325  0.65166109  0.81703569    -0.72300
O675        O  0.76340475  0.63146270  0.79446562    -0.72200
O676        O  0.69386691  0.60934424  0.80242752    -0.72200
O677        O  0.70353230  0.58966227  0.83895940    -0.72200
O678        O  0.77412865  0.61418080  0.83197309    -0.72200
O679        O  0.72986565  0.63225947  0.85397987    -0.72100
O680        O  0.74770748  0.57008979  0.81776562    -0.72300
V681        V  0.72898106  0.61962490  0.79934062     1.35200
V682        V  0.73873784  0.60177309  0.83490013     1.35200
C683        C  0.74415129  0.56783431  0.79338186     0.77100
C684        C  0.72244297  0.65251079  0.84187230     0.77200
C685        C  0.78018904  0.62817299  0.81227317     0.77100
C686        C  0.68647176  0.59643966  0.82213035     0.77000
O687        O  0.93930168  0.74858942  0.78197791    -0.72100
O688        O  0.87584267  0.71182274  0.79551271    -0.72300
O689        O  0.91660378  0.72758299  0.82448897    -0.72200
O690        O  0.89773819  0.73328105  0.75297230    -0.72200
O691        O  0.91551187  0.69530293  0.74483525    -0.72200
O692        O  0.93789994  0.69157992  0.81618324    -0.72200
O693        O  0.89608439  0.67482184  0.78917576    -0.72100
O694        O  0.95839080  0.71176049  0.77213668    -0.72300
V695        V  0.90781974  0.72964314  0.78849663     1.35200
V696        V  0.92668164  0.69411549  0.78063586     1.35200
C697        C  0.95991239  0.73633116  0.77534257     0.77100
C698        C  0.87525524  0.68696428  0.79494988     0.77200
C699        C  0.93041783  0.70869393  0.83263698     0.77100
C700        C  0.90203869  0.71474544  0.73709830     0.77000
O701        O  0.57188824  0.79081066  0.74289865    -0.72100
O702        O  0.63808166  0.82380213  0.73191224    -0.72300
O703        O  0.61372459  0.80248289  0.77305660    -0.72200
O704        O  0.59701243  0.81141833  0.70147566    -0.72200
O705        O  0.57679102  0.84786133  0.71038924    -0.72200
O706        O  0.59985388  0.84193424  0.78164862    -0.72200
O707        O  0.61959126  0.86186903  0.73742763    -0.72100
O708        O  0.55550503  0.82839709  0.75459107    -0.72300
V709        V  0.60476296  0.80781499  0.73753203     1.35200
V710        V  0.58810909  0.84425754  0.74595360     1.35200
C711        C  0.55228540  0.80410580  0.75056321     0.77100
C712        C  0.63991340  0.84862670  0.73245615     0.77200
C713        C  0.61144764  0.82117671  0.78913639     0.77100
C714        C  0.58399411  0.83095051  0.69355260     0.77000
O715        O  0.74110926  0.79149802  0.94172428    -0.72100
O716        O  0.70002293  0.80886312  0.88094775    -0.72300
O717        O  0.71598239  0.83398163  0.92416329    -0.72200
O718        O  0.72611108  0.76622528  0.89728438    -0.72200
O719        O  0.69139522  0.75206725  0.91746914    -0.72200
O720        O  0.68022764  0.82156045  0.94358434    -0.72200
O721        O  0.66534785  0.79437963  0.90102931    -0.72100
O722        O  0.70547477  0.77908670  0.96144729    -0.72300
V723        V  0.72019705  0.79973058  0.91145909     1.35200
V724        V  0.68637638  0.78692836  0.93060601     1.35200
C725        C  0.72975404  0.78374697  0.96252645     0.77100
C726        C  0.67549451  0.80448930  0.88086532     0.77200
C727        C  0.69627480  0.83971814  0.93787718     0.77100
C728        C  0.70994681  0.74800425  0.90135782     0.77000
O729        O  0.77779796  0.75204079  0.58458594    -0.72100
O730        O  0.82034003  0.72812610  0.64158555    -0.72300
O731        O  0.79739391  0.77323778  0.62911485    -0.72200
O732        O  0.80032043  0.70657065  0.59814516    -0.72200
O733        O  0.83666036  0.71668766  0.57851002    -0.72200
O734        O  0.83104744  0.78619258  0.60629856    -0.72200
O735        O  0.85495899  0.74204690  0.62098828    -0.72100
O736        O  0.81307303  0.76132781  0.56274383    -0.72300
V737        V  0.79956817  0.74030951  0.61283624     1.35200
V738        V  0.83321119  0.75138973  0.59237464     1.35200
C739        C  0.78835051  0.75990243  0.56342819     0.77100
C740        C  0.84491563  0.73193220  0.64124111     0.77200
C741        C  0.81412807  0.79064360  0.62397557     0.77100
C742        C  0.81943805  0.69961042  0.58416347     0.77000
O743        O  0.78268769  0.94063212  0.75503839    -0.72100
O744        O  0.80083985  0.87992211  0.71502322    -0.72300
O745        O  0.82623604  0.92254083  0.73097000    -0.72200
O746        O  0.75753623  0.89668395  0.73954286    -0.72200
O747        O  0.74529180  0.91582627  0.70347370    -0.72200
O748        O  0.81444135  0.94347373  0.69569824    -0.72200
O749        O  0.78958242  0.90052339  0.67946462    -0.72100
O750        O  0.77001367  0.95976132  0.71916938    -0.72300
V751        V  0.79150559  0.91043094  0.73454662     1.35200
V752        V  0.77998108  0.92959721  0.70022192     1.35200
C753        C  0.77340115  0.96076512  0.74367602     0.77100
C754        C  0.79873355  0.88020280  0.69023237     0.77200
C755        C  0.83236518  0.93639311  0.71142349     0.77100
C756        C  0.73999431  0.90078623  0.72258085     0.77000
O757        O  0.23240792  0.79026893  0.58051413    -0.72100
O758        O  0.19761407  0.80395704  0.64549151    -0.72300
O759        O  0.21716744  0.76129488  0.62200978    -0.72200
O760        O  0.21368102  0.83301614  0.60480852    -0.72200
O761        O  0.17681055  0.82675116  0.58442054    -0.72200
O762        O  0.17856087  0.75472234  0.60506005    -0.72200
O763        O  0.16012573  0.79911461  0.62591713    -0.72100
O764        O  0.19464015  0.78266695  0.56226525    -0.72300
V765        V  0.21451949  0.79693540  0.61277565     1.35200
V766        V  0.17829902  0.79082321  0.59468571     1.35200
C767        C  0.21922280  0.78478757  0.56012885     0.77100
C768        C  0.17274747  0.80420038  0.64658944     0.77200
C769        C  0.19812994  0.74615305  0.61779343     0.77100
C770        C  0.19485731  0.84222420  0.59169220     0.77000
O771        O  0.23575977  0.59800840  0.74783580    -0.72100
O772        O  0.21362844  0.65586051  0.70511331    -0.72300
O773        O  0.19091889  0.61281064  0.72435462    -0.72200
O774        O  0.25823301  0.64264047  0.72907074    -0.72200
O775        O  0.27117247  0.62095525  0.69465024    -0.72200
O776        O  0.20216740  0.59202495  0.68892393    -0.72200
O777        O  0.22667478  0.63454506  0.67055730    -0.72100
O778        O  0.24699299  0.57691823  0.71260276    -0.72300
V779        V  0.22501581  0.62680940  0.72602204     1.35200
V780        V  0.23660115  0.60638632  0.69245897     1.35200
C781        C  0.24438109  0.57709991  0.73725992     0.77100
C782        C  0.21647254  0.65486147  0.68038471     0.77200
C783        C  0.18450864  0.59838922  0.70531780     0.77100
C784        C  0.27567713  0.63812181  0.71212164     0.77000
O785        O  0.26965387  0.75364429  0.94624697    -0.72100
O786        O  0.30646341  0.74361543  0.88168890    -0.72300
O787        O  0.29217236  0.71258636  0.92167398    -0.72200
O788        O  0.28336810  0.78441689  0.90547646    -0.72200
O789        O  0.32194156  0.79299431  0.92155768    -0.72200
O790        O  0.32717515  0.72183400  0.94412757    -0.72200
O791        O  0.34330284  0.74919989  0.90230999    -0.72100
O792        O  0.30617756  0.76557547  0.96462897    -0.72300
V793        V  0.28854694  0.74876414  0.91420127     1.35200
V794        V  0.32389134  0.75731879  0.93291132     1.35200
C795        C  0.28186017  0.76118666  0.96659413     0.77100
C796        C  0.33134484  0.74427050  0.88119875     0.77200
C797        C  0.31108437  0.70487020  0.93565030     0.77100
C798        C  0.30176069  0.80053447  0.90916284     0.77000
O799        O  0.42909051  0.76733928  0.74032397    -0.72100
O800        O  0.36718410  0.72846208  0.72326806    -0.72300
O801        O  0.38505508  0.75248000  0.76633666    -0.72200
O802        O  0.41004529  0.74382971  0.69723747    -0.72200
O803        O  0.43040394  0.70815018  0.70857707    -0.72200
O804        O  0.40358117  0.71589890  0.77816328    -0.72200
O805        O  0.38737273  0.69245786  0.73388436    -0.72100
O806        O  0.44774578  0.73114853  0.75278369    -0.72300
V807        V  0.39831548  0.74741635  0.73212598     1.35200
V808        V  0.41700088  0.71269972  0.74323846     1.35200
C809        C  0.44932940  0.75559726  0.74888790     0.77100
C810        C  0.36696699  0.70363156  0.72537268     0.77200
C811        C  0.38864344  0.73507057  0.78357878     0.77100
C812        C  0.42366841  0.72420276  0.69077823     0.77000
O813        O  0.07724561  0.78591206  0.78711863    -0.72100
O814        O  0.13541119  0.82906753  0.80621013    -0.72300
O815        O  0.09197302  0.81221028  0.83024718    -0.72200
O816        O  0.12179763  0.80232834  0.76336132    -0.72200
O817        O  0.10055699  0.83611047  0.74837402    -0.72200
O818        O  0.07197642  0.84734215  0.81681217    -0.72200
O819        O  0.11489283  0.86315363  0.79108253    -0.72100
O820        O  0.05659251  0.82068944  0.77392726    -0.72300
V821        V  0.10613287  0.80798405  0.79639388     1.35200
V822        V  0.08629395  0.84108177  0.78273268     1.35200
C823        C  0.05651014  0.79622932  0.77794600     0.77100
C824        C  0.13507112  0.85357812  0.80170539     0.77200
C825        C  0.07777278  0.83183771  0.83540038     0.77100
C826        C  0.11724106  0.81796656  0.74475829     0.77000
O827        O  0.27190162  0.95276734  0.78129943    -0.72100
O828        O  0.28991703  0.89325838  0.82345556    -0.72300
O829        O  0.24645705  0.90930611  0.79904290    -0.72200
O830        O  0.31507751  0.93532274  0.80509148    -0.72200
O831        O  0.30483836  0.95535297  0.84121721    -0.72200
O832        O  0.23402969  0.93199243  0.83303085    -0.72200
O833        O  0.27647003  0.91432030  0.85805348    -0.72100
O834        O  0.26227187  0.97423313  0.81679839    -0.72300
V835        V  0.28044712  0.92314290  0.80281253     1.35200
V836        V  0.26952848  0.94368895  0.83652421     1.35200
C837        C  0.26549179  0.97425047  0.79222812     0.77100
C838        C  0.28603066  0.89378372  0.84804718     0.77200
C839        C  0.22893510  0.91505961  0.81551786     0.77100
C840        C  0.32214091  0.94887477  0.82451584     0.77000
O841        O  0.07340959  0.74924014  0.28165255    -0.72100
O842        O  0.13354027  0.70733868  0.29814335    -0.72300
O843        O  0.11558774  0.73133769  0.25486040    -0.72200
O844        O  0.09244187  0.72595211  0.32483007    -0.72200
O845        O  0.07087474  0.69050315  0.31549823    -0.72200
O846        O  0.09395157  0.69607902  0.24429036    -0.72200
O847        O  0.11163064  0.67232497  0.28759920    -0.72100
O848        O  0.05195991  0.71376774  0.27200907    -0.72300
V849        V  0.10326637  0.72782704  0.28957114     1.35200
V850        V  0.08241671  0.69391755  0.27997098     1.35200
C851        C  0.05204071  0.73840944  0.27484523     0.77100
C852        C  0.13267798  0.68255985  0.29560566     0.77200
C853        C  0.10956535  0.71435478  0.23793178     0.77100
C854        C  0.07848491  0.70708439  0.33248432     0.77000
O855        O  0.27235107  0.58556484  0.28306942    -0.72100
O856        O  0.28461490  0.65063658  0.31861983    -0.72300
O857        O  0.31432851  0.60944962  0.30417654    -0.72200
O858        O  0.24282460  0.62744706  0.29673669    -0.72200
O859        O  0.23405219  0.61028402  0.33482443    -0.72200
O860        O  0.30575318  0.58976537  0.34089833    -0.72200
O861        O  0.27714991  0.63125455  0.35575796    -0.72100
O862        O  0.26272576  0.56739698  0.32038157    -0.72300
V863        V  0.27830816  0.61784812  0.30132171     1.35200
V864        V  0.27001464  0.59991322  0.33716695     1.35200
C865        C  0.26583273  0.56520421  0.29585781     0.77100
C866        C  0.28301502  0.65195451  0.34346163     0.77200
C867        C  0.32244973  0.59681967  0.32387659     0.77100
C868        C  0.22662539  0.62325940  0.31495014     0.77000
O869        O  0.23656690  0.75288986  0.08633078    -0.72100
O870        O  0.19578300  0.73211854  0.14583853    -0.72300
O871        O  0.21383540  0.70867488  0.10271707    -0.72200
O872        O  0.21924174  0.77632995  0.13072502    -0.72200
O873        O  0.18380705  0.78863874  0.11047906    -0.72200
O874        O  0.17788211  0.71920276  0.08249777    -0.72200
O875        O  0.16046678  0.74410022  0.12529391    -0.72100
O876        O  0.20078615  0.76387469  0.06615879    -0.72300
V877        V  0.21572232  0.74287495  0.11591425     1.35200
V878        V  0.18150229  0.75386531  0.09634895     1.35200
C879        C  0.22538554  0.76097631  0.06556877     0.77100
C880        C  0.17099235  0.73443571  0.14552889     0.77200
C881        C  0.19463603  0.70187692  0.08880189     0.77100
C882        C  0.20191677  0.79352369  0.12683698     0.77000
O883        O  0.26328489  0.79536361  0.43840792    -0.72100
O884        O  0.30815404  0.80866728  0.37963875    -0.72300
O885        O  0.27982907  0.76764074  0.39582139    -0.72200
O886        O  0.29109567  0.83645704  0.42063731    -0.72200
O887        O  0.32517881  0.82353012  0.44260115    -0.72200
O888        O  0.31274200  0.75329336  0.41887604    -0.72200
O889        O  0.34113704  0.79395642  0.40231331    -0.72100
O890        O  0.29718854  0.78239234  0.46058539    -0.72300
V891        V  0.28612444  0.80167568  0.40916710     1.35200
V892        V  0.31830589  0.78851756  0.43078920     1.35200
C893        C  0.27290890  0.78718355  0.45990779     0.77100
C894        C  0.33237846  0.80317610  0.38114199     0.77200
C895        C  0.29484452  0.74898815  0.40211782     0.77100
C896        C  0.31059947  0.84215706  0.43468825     0.77000
O897        O  0.43574282  0.78243727  0.24457000    -0.72100
O898        O  0.36946042  0.81604803  0.23228079    -0.72300
O899        O  0.41041570  0.80188171  0.20231084    -0.72200
O900        O  0.39391524  0.79582040  0.27421153    -0.72200
O901        O  0.40786123  0.83557873  0.28104446    -0.72200
O902        O  0.43169302  0.83795824  0.21024801    -0.72200
O903        O  0.38887641  0.85381160  0.23589464    -0.72100
O904        O  0.45204137  0.82026370  0.25545393    -0.72300
V905        V  0.40279552  0.79964993  0.23852340     1.35200
V906        V  0.41990309  0.83611777  0.24561034     1.35200
C907        C  0.45534034  0.79592981  0.25201445     0.77100
C908        C  0.36819582  0.84095945  0.23155011     0.77200
C909        C  0.42393669  0.82084133  0.19396712     0.77100
C910        C  0.39615126  0.81529011  0.28933901     0.77000
O911        O  0.23463828  0.94811997  0.25223428    -0.72100
O912        O  0.21311944  0.88626248  0.21572905    -0.72300
O913        O  0.25761421  0.90210199  0.23775923    -0.72200
O914        O  0.18986325  0.93085984  0.23087178    -0.72200
O915        O  0.20094026  0.94985722  0.19440112    -0.72200
O916        O  0.26903896  0.91885017  0.20027595    -0.72200
O917        O  0.22319389  0.90512652  0.17880947    -0.72100
O918        O  0.24672690  0.96516956  0.21508957    -0.72300
V919        V  0.22412245  0.91730139  0.23351951     1.35200
V920        V  0.23491189  0.93450228  0.19794914     1.35200
C921        C  0.24350233  0.96762123  0.23951448     0.77100
C922        C  0.21452541  0.88539585  0.19089371     0.77200
C923        C  0.27432807  0.90404089  0.21961758     0.77100
C924        C  0.18344525  0.94451421  0.21128384     0.77000
O925        O  0.58154459  0.25196366  0.78397195    -0.72100
O926        O  0.63783205  0.20698231  0.80435435    -0.72300
O927        O  0.62616777  0.23413580  0.76110195    -0.72200
O928        O  0.59424932  0.22530430  0.82708479    -0.72200
O929        O  0.57330681  0.19110244  0.81287012    -0.72200
O930        O  0.60429768  0.20113086  0.74534286    -0.72200
O931        O  0.61661130  0.17366134  0.78841261    -0.72100
O932        O  0.55995940  0.21819521  0.76984879    -0.72300
V933        V  0.60949019  0.22900101  0.79369888     1.35200
V934        V  0.58889563  0.19671444  0.77929633     1.35200
C935        C  0.56048335  0.24254156  0.77471253     0.77100
C936        C  0.63674891  0.18253933  0.79979869     0.77200
C937        C  0.62167354  0.21867263  0.74230192     0.77100
C938        C  0.57880488  0.20653359  0.83159729     0.77000
O939        O  0.73739511  0.44798202  0.74882986    -0.72100
O940        O  0.71919279  0.38741819  0.70820403    -0.72300
O941        O  0.76210071  0.40319742  0.73393279    -0.72200
O942        O  0.69464251  0.43098635  0.72402252    -0.72200
O943        O  0.70713301  0.45068580  0.68838665    -0.72200
O944        O  0.77622913  0.42289755  0.69888521    -0.72200
O945        O  0.73328066  0.40739694  0.67324263    -0.72100
O946        O  0.75041521  0.46724388  0.71326244    -0.72300
V947        V  0.72872085  0.41783313  0.72812242     1.35200
V948        V  0.74157563  0.43676511  0.69417836     1.35200
C949        C  0.74592522  0.46851731  0.73754460     0.77100
C950        C  0.72334431  0.38728877  0.68365308     0.77200
C951        C  0.78032684  0.40707390  0.71769728     0.77100
C952        C  0.68899547  0.44503622  0.70450352     0.77000
O953        O  0.74267400  0.24947943  0.58330844    -0.72100
O954        O  0.70581481  0.23472826  0.64672149    -0.72300
O955        O  0.72112449  0.20664124  0.60515082    -0.72200
O956        O  0.72792186  0.27746914  0.62560694    -0.72200
O957        O  0.68949037  0.28636394  0.60939544    -0.72200
O958        O  0.68577484  0.21610253  0.58338429    -0.72200
O959        O  0.66895400  0.24101727  0.62629471    -0.72100
O960        O  0.70607590  0.26138244  0.56513498    -0.72300
V961        V  0.72372448  0.24232261  0.61476910     1.35200
V962        V  0.68831956  0.25115217  0.59629438     1.35200
C963        C  0.73057929  0.25790739  0.56326380     0.77100
C964        C  0.68094537  0.23466804  0.64701368     0.77200
C965        C  0.70228266  0.19908762  0.59100046     0.77100
C966        C  0.70947586  0.29364707  0.62227424     0.77000
O967        O  0.77270086  0.08187808  0.78139915    -0.72100
O968        O  0.78488789  0.14700213  0.81603146    -0.72300
O969        O  0.81486060  0.10700888  0.80014103    -0.72200
O970        O  0.74283261  0.12268367  0.79648240    -0.72200
O971        O  0.73702273  0.10707065  0.83579877    -0.72200
O972        O  0.80868728  0.08529932  0.83632834    -0.72200
O973        O  0.78211492  0.12704451  0.85363749    -0.72100
O974        O  0.76377899  0.06399568  0.81903942    -0.72300
V975        V  0.77865218  0.11420039  0.79918163     1.35200
V976        V  0.77289909  0.09607437  0.83544741     1.35200
C977        C  0.76632569  0.06170791  0.79448474     0.77100
C978        C  0.78602375  0.14788570  0.84087632     0.77200
C979        C  0.82420220  0.09381208  0.81884568     0.77100
C980        C  0.72805498  0.11910307  0.81595385     0.77000
O981        O  0.94054537  0.28606204  0.74429342    -0.72100
O982        O  0.87674580  0.32381455  0.73281330    -0.72300
O983        O  0.91674148  0.30794311  0.70277718    -0.72200
O984        O  0.89966147  0.30108588  0.77430094    -0.72200
O985        O  0.91648138  0.33944550  0.78253923    -0.72200
O986        O  0.93929648  0.34300551  0.71133423    -0.72200
O987        O  0.89786472  0.36037949  0.73824586    -0.72100
O988        O  0.95938329  0.32253684  0.75556379    -0.72300
V989        V  0.90885584  0.30536357  0.73878844     1.35200
V990        V  0.92801730  0.34058404  0.74686572     1.35200
C991        C  0.96104596  0.29806715  0.75170477     0.77100
C992        C  0.87672973  0.34875379  0.73287887     0.77200
C993        C  0.93076451  0.32658457  0.69465850     0.77100
C994        C  0.90351693  0.31965569  0.79017469     0.77000
O995        O  0.76899447  0.28826886  0.93559036    -0.72100
O996        O  0.81438885  0.30594337  0.87836104    -0.72300
O997        O  0.78702251  0.26330738  0.89238768    -0.72200
O998        O  0.79565227  0.33098972  0.92046260    -0.72200
O999        O  0.82993828  0.31808942  0.94215327    -0.72200
O1000       O  0.81990223  0.24874253  0.91513551    -0.72200
O1001       O  0.84746638  0.29093307  0.90069585    -0.72100
O1002       O  0.80300793  0.27554830  0.95771757    -0.72300
V1003       V  0.79210634  0.29676684  0.90715967     1.35200
V1004       V  0.82436303  0.28354578  0.92858443     1.35200
C1005       C  0.77859808  0.27947304  0.95685272     0.77100
C1006       C  0.83877478  0.30116927  0.87993699     0.77200
C1007       C  0.80214680  0.24458231  0.89820636     0.77100
C1008       C  0.81446043  0.33646655  0.93548888     0.77000
O1009       O  0.28315626  0.09441541  0.75070777    -0.72100
O1010       O  0.30292333  0.15577729  0.71225260    -0.72300
O1011       O  0.25905247  0.13916939  0.73518537    -0.72200
O1012       O  0.32731839  0.11248412  0.72858497    -0.72200
O1013       O  0.31669316  0.09226060  0.69254918    -0.72200
O1014       O  0.24754181  0.12081282  0.69844226    -0.72200
O1015       O  0.29248043  0.13571775  0.67616321    -0.72100
O1016       O  0.27153403  0.07580429  0.71420137    -0.72300
V1017       V  0.29279348  0.12494810  0.73106930     1.35200
V1018       V  0.28216989  0.10639134  0.69612367     1.35200
C1019       C  0.27445624  0.07433946  0.73874843     0.77100
C1020       C  0.30119723  0.15594738  0.68739312     0.77200
C1021       C  0.24227840  0.13623760  0.71729624     0.77100
C1022       C  0.33403596  0.09882283  0.70914470     0.77000
O1023       O  0.08345045  0.25933384  0.74156322    -0.72100
O1024       O  0.14719465  0.22168474  0.72893165    -0.72300
O1025       O  0.10704718  0.23786768  0.69941720    -0.72200
O1026       O  0.12471174  0.24392708  0.77100165    -0.72200
O1027       O  0.10786196  0.20548564  0.77879313    -0.72200
O1028       O  0.08424115  0.20280645  0.70770087    -0.72200
O1029       O  0.12596719  0.18514588  0.73400251    -0.72100
O1030       O  0.06477466  0.22267791  0.75252036    -0.72300
V1031       V  0.11514748  0.24008976  0.73544665     1.35200
V1032       V  0.09597200  0.20479039  0.74319603     1.35200
C1033       C  0.06306719  0.24719458  0.74914021     0.77100
C1034       C  0.14710597  0.19674589  0.72866653     0.77200
C1035       C  0.09295985  0.21929483  0.69123466     0.77100
C1036       C  0.12086340  0.22517369  0.78665512     0.77000
O1037       O  0.27743742  0.28862811  0.58606393    -0.72100
O1038       O  0.31700584  0.31200616  0.64523647    -0.72300
O1039       O  0.29830477  0.33425366  0.60163289    -0.72200
O1040       O  0.29582770  0.26655690  0.63099233    -0.72200
O1041       O  0.33107374  0.25533000  0.60967342    -0.72200
O1042       O  0.33525123  0.32498725  0.58266685    -0.72200
O1043       O  0.35282041  0.30029175  0.62547669    -0.72100
O1044       O  0.31381026  0.28000409  0.56567438    -0.72300
V1045       V  0.29775324  0.30003485  0.61548535     1.35200
V1046       V  0.33246942  0.29024499  0.59613471     1.35200
C1047       C  0.28907336  0.28147234  0.56522870     0.77100
C1048       C  0.34176628  0.30975216  0.64554847     0.77200
C1049       C  0.31766066  0.34171092  0.58822412     0.77100
C1050       C  0.31354334  0.24990470  0.62642213     0.77000
O1051       O  0.44132574  0.29093489  0.78013623    -0.72100
O1052       O  0.38232046  0.33341548  0.79949799    -0.72300
O1053       O  0.39801315  0.30960136  0.75548233    -0.72200
O1054       O  0.42431062  0.31416543  0.82409891    -0.72200
O1055       O  0.44377720  0.35083388  0.81467874    -0.72200
O1056       O  0.42150597  0.34315893  0.74348457    -0.72200
O1057       O  0.40334918  0.36792380  0.78588154    -0.72100
O1058       O  0.46332930  0.32650241  0.77211565    -0.72300
V1059       V  0.41199005  0.31260961  0.78947000     1.35200
V1060       V  0.43273317  0.34634807  0.77915928     1.35200
C1061       C  0.46290777  0.30178111  0.77404943     0.77100
C1062       C  0.38282247  0.35800425  0.79545691     0.77200
C1063       C  0.40444501  0.32589796  0.73805508     0.77100
C1064       C  0.43716076  0.33386570  0.83165363     0.77000
O1065       O  0.24465808  0.45727673  0.78157884    -0.72100
O1066       O  0.23167109  0.39409764  0.81959825    -0.72300
O1067       O  0.20255853  0.43515911  0.80430097    -0.72200
O1068       O  0.27357889  0.41536128  0.79654738    -0.72200
O1069       O  0.28318587  0.43367858  0.83387372    -0.72200
O1070       O  0.21200158  0.45628103  0.84003457    -0.72200
O1071       O  0.23951169  0.41450767  0.85619380    -0.72100
O1072       O  0.25536122  0.47671067  0.81794634    -0.72300
V1073       V  0.23836810  0.42595427  0.80117520     1.35200
V1074       V  0.24745901  0.44504272  0.83624159     1.35200
C1075       C  0.25173180  0.47801052  0.79339291     0.77100
C1076       C  0.23318655  0.39360616  0.84442180     0.77200
C1077       C  0.19492619  0.44871614  0.82360808     0.77100
C1078       C  0.29006677  0.41962208  0.81450240     0.77000
O1079       O  0.24537748  0.25163953  0.94255763    -0.72100
O1080       O  0.20444205  0.23784894  0.88111090    -0.72300
O1081       O  0.23143711  0.27911087  0.89922188    -0.72200
O1082       O  0.21914812  0.21029870  0.92306129    -0.72200
O1083       O  0.18441213  0.22320042  0.94409463    -0.72200
O1084       O  0.19632170  0.29325082  0.91872837    -0.72200
O1085       O  0.16970229  0.25106202  0.90194838    -0.72100
O1086       O  0.21034763  0.26552387  0.96225668    -0.72300
V1087       V  0.22449448  0.24511616  0.91198005     1.35200
V1088       V  0.19093936  0.25808917  0.93148163     1.35200
C1089       C  0.23451559  0.26026811  0.96330018     0.77100
C1090       C  0.17989365  0.24201365  0.88128303     0.77200
C1091       C  0.21561413  0.29767024  0.90355849     0.77100
C1092       C  0.19947372  0.20465559  0.93688940     0.77000
O1093       O  0.27948402  0.24970072  0.08300776    -0.72100
O1094       O  0.31884689  0.23242336  0.14490613    -0.72300
O1095       O  0.29493097  0.27543488  0.12684931    -0.72200
O1096       O  0.30223686  0.20674759  0.10221449    -0.72200
O1097       O  0.33810004  0.21681993  0.08171689    -0.72200
O1098       O  0.33120349  0.28732604  0.10791922    -0.72200
O1099       O  0.35457637  0.24334869  0.12438392    -0.72100
O1100       O  0.31571416  0.26100559  0.06375071    -0.72300
V1101       V  0.29954322  0.24141336  0.11377321     1.35200
V1102       V  0.33415580  0.25200557  0.09469519     1.35200
C1103       C  0.29130655  0.25719617  0.06237000     0.77100
C1104       C  0.34359130  0.23529487  0.14501680     0.77200
C1105       C  0.31229920  0.29260516  0.12331590     0.77100
C1106       C  0.32122842  0.19963631  0.08817108     0.77000
O1107       O  0.27886972  0.44339491  0.25461220    -0.72100
O1108       O  0.29604292  0.38282758  0.21373156    -0.72300
O1109       O  0.32167215  0.42532414  0.22985884    -0.72200
O1110       O  0.25331366  0.39947382  0.23905642    -0.72200
O1111       O  0.24065615  0.41808438  0.20287887    -0.72200
O1112       O  0.30946493  0.44708466  0.19525871    -0.72200
O1113       O  0.28515286  0.40388893  0.17830085    -0.72100
O1114       O  0.26502094  0.46268679  0.21929866    -0.72300
V1115       V  0.28711920  0.41324994  0.23369576     1.35200
V1116       V  0.27517352  0.43267759  0.19969228     1.35200
C1117       C  0.26947573  0.46373858  0.24369480     0.77100
C1118       C  0.29391073  0.38328797  0.18892042     0.77200
C1119       C  0.32754418  0.43969677  0.21067930     0.77100
C1120       C  0.23572545  0.40287121  0.22199449     0.77000
O1121       O  0.23988671  0.09051499  0.27882517    -0.72100
O1122       O  0.22307794  0.15075152  0.32083672    -0.72300
O1123       O  0.26564469  0.13428669  0.29471343    -0.72200
O1124       O  0.19747441  0.10822066  0.30373747    -0.72200
O1125       O  0.20908282  0.08778625  0.33922810    -0.72200
O1126       O  0.27928657  0.11324503  0.32911650    -0.72200
O1127       O  0.23694008  0.12971729  0.35526026    -0.72100
O1128       O  0.25185616  0.07007451  0.31418105    -0.72300
V1129       V  0.23189799  0.12051437  0.30016147     1.35200
V1130       V  0.24411240  0.10052772  0.33372464     1.35200
C1131       C  0.24764154  0.06948973  0.28980443     0.77100
C1132       C  0.22746061  0.15029781  0.34537636     0.77200
C1133       C  0.28393731  0.12926133  0.31057409     0.77100
C1134       C  0.19127403  0.09388293  0.32282954     0.77000
O1135       O  0.44485736  0.24976733  0.28432249    -0.72100
O1136       O  0.38054544  0.21333180  0.29660175    -0.72300
O1137       O  0.42188399  0.22727283  0.32601689    -0.72200
O1138       O  0.40266217  0.23658036  0.25517151    -0.72200
O1139       O  0.41839867  0.19815462  0.24533616    -0.72200
O1140       O  0.44330056  0.19183710  0.31604254    -0.72200
O1141       O  0.40059773  0.17629921  0.28966085    -0.72100
O1142       O  0.46272650  0.21303740  0.27195640    -0.72300
V1143       V  0.41292042  0.23106984  0.29029762     1.35200
V1144       V  0.43102480  0.19559101  0.28079437     1.35200
C1145       C  0.46493866  0.23735562  0.27639208     0.77100
C1146       C  0.37983182  0.18844927  0.29548094     0.77200
C1147       C  0.43587952  0.20818209  0.33332258     0.77100
C1148       C  0.40547053  0.21840391  0.23858907     0.77000
O1149       O  0.07520446  0.28066730  0.24354879    -0.72100
O1150       O  0.13991910  0.31638856  0.23090593    -0.72300
O1151       O  0.11873462  0.29128060  0.27159078    -0.72200
O1152       O  0.09727755  0.30488839  0.20258616    -0.72200
O1153       O  0.07739862  0.34046299  0.21495887    -0.72200
O1154       O  0.10388848  0.32899379  0.28445946    -0.72200
O1155       O  0.12103034  0.35327708  0.24110167    -0.72100
O1156       O  0.05860537  0.31704753  0.25834853    -0.72300
V1157       V  0.10734970  0.29897303  0.23745719     1.35200
V1158       V  0.09041743  0.33419418  0.24962040     1.35200
C1159       C  0.05565802  0.29305630  0.25276925     0.77100
C1160       C  0.14124400  0.34111934  0.23363740     0.77200
C1161       C  0.11709335  0.30835822  0.28933690     0.77100
C1162       C  0.08394947  0.32485599  0.19666503     0.77000
O1163       O  0.24436852  0.28803515  0.44508347    -0.72100
O1164       O  0.20403552  0.29891390  0.38286243    -0.72300
O1165       O  0.22091097  0.32938008  0.42210102    -0.72200
O1166       O  0.22814181  0.25793640  0.40467226    -0.72200
O1167       O  0.19066303  0.24921283  0.42304091    -0.72200
O1168       O  0.18717838  0.32046374  0.44660877    -0.72200
O1169       O  0.16836919  0.29355848  0.40563581    -0.72100
O1170       O  0.20895795  0.27609052  0.46541617    -0.72300
V1171       V  0.22375962  0.29337336  0.41420354     1.35200
V1172       V  0.18951757  0.28490664  0.43491248     1.35200
C1173       C  0.23341805  0.28007772  0.46599139     0.77100
C1174       C  0.17919181  0.29850007  0.38394763     0.77200
C1175       C  0.20281922  0.33726068  0.43698552     0.77100
C1176       C  0.20984583  0.24189064  0.40893505     0.77000
O1177       O  0.73515535  0.28850166  0.07426655    -0.72100
O1178       O  0.70265522  0.30319897  0.13992107    -0.72300
O1179       O  0.72227493  0.26049816  0.11712676    -0.72200
O1180       O  0.71593186  0.33168414  0.09775724    -0.72200
O1181       O  0.67873671  0.32357553  0.07881384    -0.72200
O1182       O  0.68299722  0.25260006  0.10249725    -0.72200
O1183       O  0.66445981  0.29730195  0.12200938    -0.72100
O1184       O  0.69710009  0.27875095  0.05774674    -0.72300
V1185       V  0.71831128  0.29580177  0.10680920     1.35200
V1186       V  0.68161681  0.28812091  0.09041093     1.35200
C1187       C  0.72156681  0.28138609  0.05470460     0.77100
C1188       C  0.67791932  0.30248586  0.14214385     0.77200
C1189       C  0.70313859  0.24499474  0.11495007     0.77100
C1190       C  0.69619797  0.34004766  0.08537871     0.77000
O1191       O  0.58662183  0.28143895  0.28583975    -0.72100
O1192       O  0.64497750  0.32603354  0.30183861    -0.72300
O1193       O  0.60342564  0.30822795  0.32789706    -0.72200
O1194       O  0.62970819  0.29865440  0.25953149    -0.72200
O1195       O  0.60675763  0.33175413  0.24548708    -0.72200
O1196       O  0.58188402  0.34280021  0.31527606    -0.72200
O1197       O  0.62278012  0.35936529  0.28717779    -0.72100
O1198       O  0.56466184  0.31572583  0.27344969    -0.72300
V1199       V  0.61570137  0.30413253  0.29337053     1.35200
V1200       V  0.59437749  0.33666414  0.28052317     1.35200
C1201       C  0.56518304  0.29132792  0.27779774     0.77100
C1202       C  0.64346303  0.35052642  0.29747825     0.77200
C1203       C  0.58910018  0.32757082  0.33359463     0.77100
C1204       C  0.62351449  0.31389303  0.24102070     0.77000
O1205       O  0.73254301  0.09441109  0.24578076    -0.72100
O1206       O  0.71397129  0.15411884  0.20385551    -0.72300
O1207       O  0.68910772  0.11161591  0.22188372    -0.72200
O1208       O  0.75738696  0.13835623  0.22847624    -0.72200
O1209       O  0.77014088  0.11657648  0.19406589    -0.72200
O1210       O  0.69992372  0.09135312  0.18602497    -0.72200
O1211       O  0.72723253  0.13291259  0.16926720    -0.72100
O1212       O  0.74310611  0.07344464  0.21030314    -0.72300
V1213       V  0.72360392  0.12411377  0.22442352     1.35200
V1214       V  0.73494092  0.10383603  0.19068888     1.35200
C1215       C  0.73999562  0.07322111  0.23485401     0.77100
C1216       C  0.71804432  0.15357994  0.17928495     0.77200
C1217       C  0.68237678  0.09797388  0.20244638     0.77100
C1218       C  0.77492643  0.13346799  0.21174252     0.77000
O1219       O  0.93238507  0.25638608  0.24142165    -0.72100
O1220       O  0.87054889  0.21835725  0.22272791    -0.72300
O1221       O  0.88819541  0.24094053  0.26646013    -0.72200
O1222       O  0.91363537  0.23447707  0.19755029    -0.72200
O1223       O  0.93322539  0.19800072  0.20765891    -0.72200
O1224       O  0.90693470  0.20422185  0.27756262    -0.72200
O1225       O  0.89023782  0.18194680  0.23296220    -0.72100
O1226       O  0.95115875  0.21976524  0.25218738    -0.72300
V1227       V  0.90165701  0.23688825  0.23234855     1.35200
V1228       V  0.92013256  0.20175591  0.24249898     1.35200
C1229       C  0.95273857  0.24435795  0.24922803     0.77100
C1230       C  0.87002286  0.19350536  0.22453971     0.77200
C1231       C  0.89182227  0.22316777  0.28324321     0.77100
C1232       C  0.92699313  0.21491563  0.19048316     0.77000
O1233       O  0.77061382  0.25297357  0.44155508    -0.72100
O1234       O  0.80905145  0.23659512  0.37939724    -0.72300
O1235       O  0.79397307  0.20996893  0.42166773    -0.72200
O1236       O  0.78527151  0.27945995  0.39779584    -0.72200
O1237       O  0.82156777  0.29132544  0.41666424    -0.72200
O1238       O  0.83007767  0.22073889  0.44161512    -0.72200
O1239       O  0.84512860  0.24757873  0.39913494    -0.72100
O1240       O  0.80694273  0.26444806  0.46053288    -0.72300
V1241       V  0.79035432  0.24510347  0.41062080     1.35200
V1242       V  0.82514804  0.25593380  0.42925437     1.35200
C1243       C  0.78248109  0.26077371  0.46200528     0.77100
C1244       C  0.83380938  0.23889816  0.37890861     0.77200
C1245       C  0.81391386  0.20316211  0.43457334     0.77100
C1246       C  0.80244038  0.29685587  0.40167403     0.77000
O1247       O  0.77522713  0.45690044  0.27993430    -0.72100
O1248       O  0.79030144  0.39340916  0.31678715    -0.72300
O1249       O  0.74756841  0.41453097  0.29510399    -0.72200
O1250       O  0.81827008  0.43516847  0.30114160    -0.72200
O1251       O  0.80922575  0.45646533  0.33686614    -0.72200
O1252       O  0.73900546  0.43126569  0.33346705    -0.72200
O1253       O  0.78401110  0.41363933  0.35380123    -0.72100
O1254       O  0.76436708  0.47529914  0.31683580    -0.72300
V1255       V  0.78263951  0.42544441  0.29890595     1.35200
V1256       V  0.77421726  0.44393299  0.33446949     1.35200
C1257       C  0.76747194  0.47708929  0.29226586     0.77100
C1258       C  0.78979274  0.39278956  0.34167616     0.77200
C1259       C  0.73173048  0.41795031  0.31378226     0.77100
C1260       C  0.82600617  0.44916754  0.32005839     0.77000
O1261       O  0.77439340  0.79142061  0.08273016    -0.72100
O1262       O  0.81301517  0.80887999  0.14451426    -0.72300
O1263       O  0.79471946  0.83537245  0.10322928    -0.72200
O1264       O  0.79212334  0.76504514  0.12532358    -0.72200
O1265       O  0.82906182  0.75654006  0.10570352    -0.72200
O1266       O  0.83070988  0.82768584  0.08173450    -0.72200
O1267       O  0.84937239  0.80181534  0.12347583    -0.72100
O1268       O  0.81085940  0.78262300  0.06267736    -0.72300
V1269       V  0.79421664  0.79989855  0.11342187     1.35200
V1270       V  0.82924381  0.79220650  0.09366163     1.35200
C1271       C  0.78616727  0.78467589  0.06181406     0.77100
C1272       C  0.83789910  0.80864387  0.14436543     0.77200
C1273       C  0.81338123  0.84383289  0.08946956     0.77100
C1274       C  0.81069526  0.74934026  0.12085166     0.77000
O1275       O  0.73800631  0.95360810  0.28148669    -0.72100
O1276       O  0.72879979  0.89045629  0.32100902    -0.72300
O1277       O  0.69752315  0.92871753  0.30392577    -0.72200
O1278       O  0.76968289  0.91419906  0.29774547    -0.72200
O1279       O  0.77735100  0.93380606  0.33489864    -0.72200
O1280       O  0.70459553  0.95185413  0.33907656    -0.72200
O1281       O  0.73479945  0.91262573  0.35693188    -0.72100
O1282       O  0.74698228  0.97434027  0.31762190    -0.72300
V1283       V  0.73377489  0.92223086  0.30168327     1.35200
V1284       V  0.74090283  0.94285180  0.33637320     1.35200
C1285       C  0.74324655  0.97501191  0.29313504     0.77100
C1286       C  0.72969932  0.89105828  0.34590399     0.77200
C1287       C  0.68863521  0.94234143  0.32251942     0.77100
C1288       C  0.78553581  0.92015227  0.31574966     0.77000
O1289       O  0.93588775  0.79173636  0.28101573    -0.72100
O1290       O  0.87848596  0.83522502  0.30199741    -0.72300
O1291       O  0.89173662  0.81009843  0.25797722    -0.72200
O1292       O  0.92152927  0.81619006  0.32501347    -0.72200
O1293       O  0.94174530  0.85181629  0.31355626    -0.72200
O1294       O  0.91402420  0.84362662  0.24400940    -0.72200
O1295       O  0.89932725  0.86944930  0.28759598    -0.72100
O1296       O  0.95765444  0.82653303  0.26994042    -0.72300
V1297       V  0.90738646  0.81395954  0.29112234     1.35200
V1298       V  0.92789605  0.84715960  0.27890083     1.35200
C1299       C  0.95717411  0.80191461  0.27306635     0.77100
C1300       C  0.87912587  0.85984497  0.29826217     0.77200
C1301       C  0.89681331  0.82609899  0.23983905     0.77100
C1302       C  0.93592736  0.83526555  0.33126036     0.77000
O1303       O  0.77869367  0.59753960  0.24925848    -0.72100
O1304       O  0.79999680  0.65644976  0.20847643    -0.72300
O1305       O  0.75584112  0.64253131  0.23265373    -0.72200
O1306       O  0.82285742  0.61240584  0.22559582    -0.72200
O1307       O  0.81078806  0.59248751  0.18995312    -0.72200
O1308       O  0.74255645  0.62253875  0.19738821    -0.72200
O1309       O  0.78721369  0.63651472  0.17308234    -0.72100
O1310       O  0.76627748  0.57770174  0.21371397    -0.72300
V1311       V  0.78900263  0.62678614  0.22832979     1.35200
V1312       V  0.77685357  0.60763591  0.19424076     1.35200
C1313       C  0.76976004  0.57707508  0.23828395     0.77100
C1314       C  0.79711208  0.65659112  0.18377176     0.77200
C1315       C  0.73809403  0.63858836  0.21589457     0.77100
C1316       C  0.82856426  0.59766958  0.20655099     0.77000
O1317       O  0.74152207  0.75436185  0.44650361    -0.72100
O1318       O  0.70426727  0.73792491  0.38369300    -0.72300
O1319       O  0.72725627  0.78090493  0.40288019    -0.72200
O1320       O  0.71910175  0.71122720  0.42646813    -0.72200
O1321       O  0.68336268  0.72196812  0.44684417    -0.72200
O1322       O  0.68966425  0.79161341  0.42007515    -0.72200
O1323       O  0.66758708  0.74683064  0.40353585    -0.72100
O1324       O  0.70493925  0.76645077  0.46473320    -0.72300
V1325       V  0.72238237  0.74637983  0.41533071     1.35200
V1326       V  0.68715866  0.75664459  0.43352556     1.35200
C1327       C  0.72933731  0.76251986  0.46662150     0.77100
C1328       C  0.67943857  0.73927668  0.38314386     0.77200
C1329       C  0.70936663  0.79766867  0.40616839     0.77100
C1330       C  0.69975952  0.70444206  0.44033688     0.77000
O1331       O  0.60505624  0.70749182  0.28281728    -0.72100
O1332       O  0.57792900  0.69826756  0.21357520    -0.72300
O1333       O  0.62162092  0.68420565  0.23875264    -0.72200
O1334       O  0.55995077  0.72114694  0.25767809    -0.72200
O1335       O  0.57734449  0.75772981  0.24474322    -0.72200
O1336       O  0.64037262  0.72084037  0.22769196    -0.72200
O1337       O  0.59689509  0.73441765  0.20165454    -0.72100
O1338       O  0.62201107  0.74459575  0.27045011    -0.72300
V1339       V  0.59133945  0.70357540  0.24808182     1.35200
V1340       V  0.60867981  0.73877003  0.23646306     1.35200
C1341       C  0.61958314  0.72707663  0.28776318     0.77100
C1342       C  0.58393175  0.71426001  0.19549415     0.77200
C1343       C  0.64154510  0.69608074  0.23014059     0.77100
C1344       C  0.55754661  0.74550274  0.25362429     0.77000
C1345       C  0.62476414  0.72013039  0.33610066    -0.26700
C1346       C  0.63513512  0.72895595  0.31219198    -0.14700
C1347       C  0.66095843  0.73921643  0.31150356     0.35900
C1348       C  0.67538370  0.74135786  0.33483769    -0.26100
C1349       C  0.66458640  0.73371882  0.35889360    -0.15300
C1350       C  0.63917994  0.72270883  0.35949612     0.37000
N1351       N  0.62806313  0.71392674  0.38378227    -0.89600
H1352       H  0.60522114  0.71178512  0.33673254     0.18100
H1353       H  0.69491050  0.74976101  0.33433740     0.18100
N1354       N  0.67258941  0.74718694  0.28703866    -0.88600
H1355       H  0.62364083  0.69395760  0.38191499     0.35500
H1356       H  0.61048213  0.72409450  0.38678834     0.40600
H1357       H  0.67474415  0.73033039  0.27552018     0.40200
H1358       H  0.69146590  0.75464493  0.29001794     0.35100
C1359       C  0.68929894  0.64101418  0.21300244    -0.26700
C1360       C  0.71332548  0.65345083  0.21776596    -0.14700
C1361       C  0.71363146  0.68022621  0.22489604     0.35900
C1362       C  0.69002611  0.69398944  0.22763331    -0.26100
C1363       C  0.66587372  0.68138560  0.22411049    -0.15300
C1364       C  0.66546467  0.65464421  0.21635687     0.37000
N1365       N  0.64094165  0.64145409  0.21189397    -0.89600
H1366       H  0.68912117  0.62049118  0.20733926     0.18100
H1367       H  0.69065940  0.71449218  0.23330174     0.18100
N1368       N  0.73797353  0.69363120  0.22916573    -0.88600
H1369       H  0.64410640  0.62183413  0.20668199     0.35500
H1370       H  0.63199501  0.65043680  0.19574787     0.40600
H1371       H  0.73790673  0.70108444  0.24830489     0.40200
H1372       H  0.73888639  0.70950932  0.21618112     0.35100
C1373       C  0.81601255  0.88532793  0.32924105    -0.26700
C1374       C  0.81197411  0.90859975  0.31512423    -0.14700
C1375       C  0.83090042  0.91688805  0.29678208     0.35900
C1376       C  0.85340352  0.90132840  0.29258137    -0.26100
C1377       C  0.85669698  0.87708649  0.30553445    -0.15300
C1378       C  0.83801406  0.86943235  0.32448486     0.37000
N1379       N  0.84103871  0.84535246  0.33870790    -0.89600
H1380       H  0.80120049  0.87864990  0.34298809     0.18100
H1381       H  0.86773971  0.90753330  0.27815599     0.18100
N1382       N  0.82696890  0.94076893  0.28222126    -0.88600
H1383       H  0.82456243  0.83367751  0.33507715     0.35500
H1384       H  0.84139772  0.84978404  0.35875376     0.40600
H1385       H  0.81067666  0.93810481  0.27003566     0.40200
H1386       H  0.84294328  0.94432610  0.26984485     0.35100
C1387       C  0.70710051  0.84830016  0.35207339    -0.26700
C1388       C  0.72417677  0.86746171  0.36196882    -0.14700
C1389       C  0.73480415  0.86433732  0.38747595     0.35900
C1390       C  0.72824647  0.84200084  0.40230777    -0.26100
C1391       C  0.71125587  0.82288630  0.39230849    -0.15300
C1392       C  0.70030771  0.82618828  0.36693684     0.37000
N1393       N  0.68294994  0.80723265  0.35524311    -0.89600
H1394       H  0.69868776  0.85062226  0.33266031     0.18100
H1395       H  0.73712100  0.83901202  0.42142326     0.18100
N1396       N  0.75282220  0.88337975  0.39793399    -0.88600
H1397       H  0.66514270  0.81669919  0.35141494     0.35500
H1398       H  0.67856236  0.79203318  0.36820108     0.40600
H1399       H  0.76975633  0.88285880  0.38634126     0.40200
H1400       H  0.75858621  0.87824433  0.41695730     0.35100
C1401       C  0.81015092  0.72699704  0.16327462    -0.26700
C1402       C  0.81151823  0.72472199  0.13589328    -0.14700
C1403       C  0.81053186  0.69975006  0.12414728     0.35900
C1404       C  0.80687523  0.67746718  0.14023336    -0.26100
C1405       C  0.80420085  0.67990180  0.16773158    -0.15300
C1406       C  0.80658488  0.70498746  0.17924981     0.37000
N1407       N  0.80422934  0.70851023  0.20706552    -0.89600
H1408       H  0.81098787  0.74626776  0.17234877     0.18100
H1409       H  0.80537595  0.65825333  0.13120509     0.18100
N1410       N  0.81228510  0.69721834  0.09609571    -0.88600
H1411       H  0.78859133  0.72134026  0.21062785     0.35500
H1412       H  0.82139821  0.71745695  0.21385062     0.40600
H1413       H  0.79589071  0.70650959  0.08794958     0.40200
H1414       H  0.81120061  0.67745158  0.09060676     0.35100
C1415       C  0.84085611  0.81321251  0.19277681    -0.26700
C1416       C  0.85312836  0.81544465  0.16827224    -0.14700
C1417       C  0.87976454  0.82332440  0.16726792     0.35900
C1418       C  0.89371383  0.82793605  0.19071154    -0.26100
C1419       C  0.88162626  0.82432470  0.21515405    -0.15300
C1420       C  0.85478662  0.81746166  0.21605860     0.37000
N1421       N  0.84148105  0.81487839  0.24072621    -0.89600
H1422       H  0.82042832  0.80743994  0.19400357     0.18100
H1423       H  0.91422826  0.83343818  0.18978591     0.18100
N1424       N  0.89274945  0.82669073  0.14255976    -0.88600
H1425       H  0.83392858  0.79582529  0.24195072     0.35500
H1426       H  0.82571591  0.82804007  0.24092988     0.40600
H1427       H  0.90903747  0.81418580  0.14215215     0.40200
H1428       H  0.89953930  0.84603702  0.14151675     0.35100
C1429       C  0.76896560  0.52589515  0.29297062    -0.26700
C1430       C  0.76392901  0.50275049  0.27881377    -0.14700
C1431       C  0.75778809  0.50457852  0.25185160     0.35900
C1432       C  0.75839750  0.52928261  0.23939094    -0.26100
C1433       C  0.76515735  0.55229423  0.25321730    -0.15300
C1434       C  0.76984286  0.55046365  0.28049004     0.37000
N1435       N  0.77634279  0.57330120  0.29557747    -0.89600
H1436       H  0.77358711  0.52483893  0.31371852     0.18100
H1437       H  0.75443567  0.53035083  0.21852079     0.18100
N1438       N  0.75129838  0.48136539  0.23714417    -0.88600
H1439       H  0.79475409  0.57027730  0.30412989     0.35500
H1440       H  0.76255723  0.57516568  0.31067120     0.40600
H1441       H  0.74750389  0.48605432  0.21751554     0.40200
H1442       H  0.73382863  0.47387435  0.24485995     0.35100
C1443       C  0.78936752  0.32110816  0.36169342    -0.26700
C1444       C  0.80050634  0.32196454  0.38695186    -0.14700
C1445       C  0.80936719  0.34625101  0.39692076     0.35900
C1446       C  0.80617576  0.36919622  0.38162951    -0.26100
C1447       C  0.79477686  0.36818577  0.35644110    -0.15300
C1448       C  0.78657339  0.34379445  0.34641890     0.37000
N1449       N  0.77447782  0.34204684  0.32107924    -0.89600
H1450       H  0.78275455  0.30256161  0.35359677     0.18100
H1451       H  0.81246712  0.38796374  0.38944294     0.18100
N1452       N  0.82100607  0.34765156  0.42257914    -0.88600
H1453       H  0.75567814  0.33419497  0.32348070     0.35500
H1454       H  0.78543484  0.32896434  0.30964210     0.40600
H1455       H  0.80657515  0.34252904  0.43624223     0.40200
H1456       H  0.82656938  0.36694116  0.42689608     0.35100
C1457       C  0.89035941  0.22418799  0.33203723    -0.26700
C1458       C  0.87708550  0.22426217  0.30800713    -0.14700
C1459       C  0.84945761  0.22685288  0.30764230     0.35900
C1460       C  0.83583039  0.23062785  0.33104545    -0.26100
C1461       C  0.84907805  0.23217606  0.35509176    -0.15300
C1462       C  0.87663268  0.22811851  0.35572076     0.37000
N1463       N  0.89059673  0.22812815  0.38024967    -0.89600
H1464       H  0.91149529  0.22182976  0.33224164     0.18100
H1465       H  0.81472578  0.23315200  0.33023795     0.18100
N1466       N  0.83462335  0.22535448  0.28377552    -0.88600
H1467       H  0.91068948  0.22533016  0.37714489     0.35500
H1468       H  0.88408102  0.21193935  0.39106547     0.40600
H1469       H  0.83905541  0.20758005  0.27449154     0.40200
H1470       H  0.83997853  0.24086344  0.27148243     0.35100
C1471       C  0.75046789  0.00073212  0.25207971    -0.26700
C1472       C  0.74402330  0.00045336  0.27880871    -0.14700
C1473       C  0.73742334  0.02441128  0.29135208     0.35900
C1474       C  0.73749679  0.04796708  0.27687987    -0.26100
C1475       C  0.74354986  0.04829566  0.24998199    -0.15300
C1476       C  0.75057770  0.02426840  0.23756350     0.37000
N1477       N  0.75744084  0.02359551  0.21017722    -0.89600
H1478       H  0.75555407  0.98243623  0.24244331     0.18100
H1479       H  0.73186916  0.06607383  0.28655263     0.18100
N1480       N  0.72965577  0.02469332  0.31850911    -0.88600
H1481       H  0.76093162  0.00432573  0.20395411     0.35500
H1482       H  0.77520089  0.03363954  0.20806572     0.40600
H1483       H  0.71196047  0.01440871  0.31997995     0.40200
H1484       H  0.72577278  0.04386230  0.32480197     0.35100
C1485       C  0.82376457  0.13692756  0.20840855    -0.26700
C1486       C  0.79938337  0.14898572  0.21229504    -0.14700
C1487       C  0.79826211  0.17629253  0.21745738     0.35900
C1488       C  0.82159605  0.19060587  0.22027118    -0.26100
C1489       C  0.84608097  0.17828340  0.21811732    -0.15300
C1490       C  0.84712339  0.15130466  0.21144059     0.37000
N1491       N  0.87183372  0.13841273  0.20769062    -0.89600
H1492       H  0.82473169  0.11614342  0.20388467     0.18100
H1493       H  0.82061000  0.21134314  0.22498922     0.18100
N1494       N  0.77334540  0.18940034  0.21986560    -0.88600
H1495       H  0.87221958  0.13073091  0.18864797     0.35500
H1496       H  0.87294090  0.12271406  0.22088093     0.40600
H1497       H  0.76404449  0.18838336  0.20158717     0.40200
H1498       H  0.77593143  0.20934985  0.22399521     0.35100
C1499       C  0.66737147  0.39205503  0.28899473    -0.26700
C1500       C  0.66501586  0.36889463  0.30388094    -0.14700
C1501       C  0.68274703  0.36422559  0.32467028     0.35900
C1502       C  0.70336520  0.38204559  0.32902826    -0.26100
C1503       C  0.70649322  0.40425233  0.31303995    -0.15300
C1504       C  0.68816027  0.40960618  0.29313168     0.37000
N1505       N  0.69082979  0.43273586  0.27713145    -0.89600
H1506       H  0.65349689  0.39600309  0.27336062     0.18100
H1507       H  0.71783561  0.37792135  0.34408658     0.18100
N1508       N  0.67991221  0.34143719  0.34109102    -0.88600
H1509       H  0.67516530  0.43423777  0.26395648     0.35500
H1510       H  0.70775101  0.43060222  0.26573192     0.40600
H1511       H  0.66221669  0.34336254  0.35131797     0.40200
H1512       H  0.69477603  0.34082537  0.35523426     0.35100
C1513       C  0.72729324  0.20473977  0.12644616    -0.26700
C1514       C  0.70430338  0.21961149  0.12870290    -0.14700
C1515       C  0.68535522  0.21273467  0.14779387     0.35900
C1516       C  0.69010723  0.19115330  0.16449478    -0.26100
C1517       C  0.71329633  0.17647150  0.16223145    -0.15300
C1518       C  0.73186518  0.18322948  0.14287071     0.37000
N1519       N  0.75597578  0.16889315  0.14055780    -0.89600
H1520       H  0.74219607  0.21035608  0.11233193     0.18100
H1521       H  0.67578976  0.18581061  0.17928881     0.18100
N1522       N  0.66191871  0.22820088  0.15078977    -0.88600
H1523       H  0.77150545  0.18198605  0.14346193     0.35500
H1524       H  0.75727626  0.16158658  0.12141117     0.40600
H1525       H  0.66749747  0.24687301  0.15720148     0.40200
H1526       H  0.64998994  0.22036653  0.16554319     0.35100
C1527       C  0.66295938  0.30213848  0.21512969    -0.26700
C1528       C  0.63696547  0.31140621  0.21543677    -0.14700
C1529       C  0.62481578  0.31833521  0.19164145     0.35900
C1530       C  0.63871576  0.31575431  0.16800022    -0.26100
C1531       C  0.66474080  0.30654082  0.16767421    -0.15300
C1532       C  0.67699096  0.29958274  0.19154819     0.37000
N1533       N  0.70333088  0.28938301  0.19179387    -0.89600
H1534       H  0.67243964  0.29689177  0.23344348     0.18100
H1535       H  0.62901378  0.32087851  0.14976663     0.18100
N1536       N  0.59817211  0.32728368  0.19129325    -0.88600
H1537       H  0.70310653  0.27121120  0.18220445     0.35500
H1538       H  0.70951682  0.28570009  0.21101645     0.40600
H1539       H  0.58732992  0.31450334  0.17944067     0.40200
H1540       H  0.59778262  0.34587973  0.18259148     0.35100
C1541       C  0.00099404  0.24225371  0.25744256    -0.26700
C1542       C  0.97846235  0.25787558  0.25336954    -0.14700
C1543       C  0.98169543  0.28549640  0.25167165     0.35900
C1544       C  0.00689894  0.29641372  0.25295845    -0.26100
C1545       C  0.02940669  0.28059200  0.25538052    -0.15300
C1546       C  0.02632000  0.25324933  0.25839086     0.37000
N1547       N  0.04887568  0.23669697  0.26219711    -0.89600
H1548       H  0.99902457  0.22114014  0.25915378     0.18100
H1549       H  0.00892605  0.31749826  0.25079923     0.18100
N1550       N  0.96001636  0.30307941  0.24818556    -0.88600
H1551       H  0.04327046  0.21701804  0.26388045     0.35500
H1552       H  0.05738760  0.24191021  0.28014085     0.40600
H1553       H  0.94658840  0.30009330  0.26341233     0.40200
H1554       H  0.95106399  0.29913160  0.23015622     0.35100
C1555       C  0.16813331  0.28519466  0.33899703    -0.26700
C1556       C  0.16313438  0.30183537  0.36017557    -0.14700
C1557       C  0.14209694  0.31989279  0.35868399     0.35900
C1558       C  0.12710948  0.32151194  0.33562669    -0.26100
C1559       C  0.13199941  0.30473899  0.31422727    -0.15300
C1560       C  0.15272077  0.28598655  0.31640025     0.37000
N1561       N  0.15902290  0.26750775  0.29610872    -0.89600
H1562       H  0.18389161  0.27090571  0.34025702     0.18100
H1563       H  0.11153146  0.33597103  0.33449138     0.18100
N1564       N  0.13589604  0.33718173  0.38000088    -0.88600
H1565       H  0.16412823  0.27762886  0.27901656     0.35500
H1566       H  0.14278751  0.25545361  0.29270506     0.40600
H1567       H  0.15257727  0.34812750  0.38457231     0.40200
H1568       H  0.13084136  0.32585818  0.39636505     0.35100
C1569       C  0.51345497  0.23695698  0.28227101    -0.26700
C1570       C  0.49085109  0.25041288  0.27387985    -0.14700
C1571       C  0.49323546  0.27638130  0.26473248     0.35900
C1572       C  0.51795179  0.28865836  0.26505899    -0.26100
C1573       C  0.54053178  0.27572489  0.27460293    -0.15300
C1574       C  0.53821734  0.24929610  0.28289244     0.37000
N1575       N  0.56064052  0.23531681  0.29281027    -0.89600
H1576       H  0.51160291  0.21696491  0.28934216     0.18100
H1577       H  0.51936287  0.30880251  0.25836700     0.18100
N1578       N  0.47053654  0.29025351  0.25527708    -0.88600
H1579       H  0.57357324  0.23251534  0.27711490     0.35500
H1580       H  0.55527143  0.21658030  0.29926071     0.40600
H1581       H  0.46387526  0.28048631  0.23848869     0.40200
H1582       H  0.47556654  0.30927049  0.24938795     0.35100
C1583       C  0.30849348  0.16786182  0.29421313    -0.26700
C1584       C  0.30916900  0.14362114  0.30758521    -0.14700
C1585       C  0.33349662  0.13440296  0.31728070     0.35900
C1586       C  0.35627185  0.14934837  0.31319471    -0.26100
C1587       C  0.35532484  0.17366801  0.30009650    -0.15300
C1588       C  0.33120077  0.18289759  0.29032321     0.37000
N1589       N  0.32990418  0.20719729  0.27594909    -0.89600
H1590       H  0.29002912  0.17528151  0.28670218     0.18100
H1591       H  0.37485704  0.14199032  0.32049144     0.18100
N1592       N  0.33586130  0.10984036  0.33077025    -0.88600
H1593       H  0.31062577  0.21125191  0.27021525     0.35500
H1594       H  0.34071644  0.20480487  0.25865751     0.40600
H1595       H  0.32848785  0.09499027  0.31866294     0.40200
H1596       H  0.32466507  0.11069437  0.34794014     0.35100
C1597       C  0.23427893  0.20155893  0.39881636    -0.26700
C1598       C  0.21103426  0.21603889  0.39593460    -0.14700
C1599       C  0.19263512  0.20838661  0.37639148     0.35900
C1600       C  0.19850219  0.18703267  0.35990727    -0.26100
C1601       C  0.22199765  0.17299248  0.36258537    -0.15300
C1602       C  0.23982058  0.18010709  0.38250849     0.37000
N1603       N  0.26417530  0.16631410  0.38546535    -0.89600
H1604       H  0.24876585  0.20760938  0.41319077     0.18100
H1605       H  0.18460569  0.18143473  0.34480032     0.18100
N1606       N  0.16863574  0.22246413  0.37152902    -0.88600
H1607       H  0.26509345  0.15900039  0.40462754     0.35500
H1608       H  0.27947787  0.17976967  0.38306307     0.40600
H1609       H  0.16626094  0.23846635  0.38401771     0.40200
H1610       H  0.15308093  0.20965260  0.37540853     0.35100
C1611       C  0.21169649  0.36390722  0.23833072    -0.26700
C1612       C  0.21100182  0.38764330  0.22414969    -0.14700
C1613       C  0.18727858  0.39553641  0.21221596     0.35900
C1614       C  0.16482446  0.37959632  0.21497500    -0.26100
C1615       C  0.16575516  0.35585218  0.22908510    -0.15300
C1616       C  0.18952703  0.34805306  0.24086632     0.37000
N1617       N  0.19149670  0.32471583  0.25646550    -0.89600
H1618       H  0.22975045  0.35742682  0.24754090     0.18100
H1619       H  0.14642987  0.38580305  0.20627026     0.18100
N1620       N  0.18589809  0.41977814  0.19782334    -0.88600
H1621       H  0.18716811  0.30852263  0.24464400     0.35500
H1622       H  0.17769357  0.32582294  0.27163381     0.40600
H1623       H  0.18906176  0.43509073  0.21114280     0.40200
H1624       H  0.16707815  0.42253865  0.19012338     0.35100
C1625       C  0.30226828  0.31314985  0.16566951    -0.26700
C1626       C  0.31077073  0.31659201  0.13963038    -0.14700
C1627       C  0.31538443  0.34222249  0.13026079     0.35900
C1628       C  0.31019453  0.36379376  0.14674373    -0.26100
C1629       C  0.30084466  0.36021273  0.17259127    -0.15300
C1630       C  0.29710096  0.33453359  0.18215293     0.37000
N1631       N  0.28705493  0.33019343  0.20819480    -0.89600
H1632       H  0.29898494  0.29345858  0.17308083     0.18100
H1633       H  0.31325293  0.38347521  0.13924471     0.18100
N1634       N  0.32433604  0.34692202  0.10403086    -0.88600
H1635       H  0.28578462  0.31010247  0.21226126     0.35500
H1636       H  0.26786328  0.33747973  0.20873290     0.40600
H1637       H  0.31098934  0.33839149  0.09098229     0.40200
H1638       H  0.34250329  0.33767208  0.10166833     0.35100
C1639       C  0.36114029  0.20531394  0.17977628    -0.26700
C1640       C  0.35973430  0.23051403  0.16866555    -0.14700
C1641       C  0.37507896  0.25093318  0.17948155     0.35900
C1642       C  0.39082506  0.24604764  0.20139705    -0.26100
C1643       C  0.39220169  0.22098757  0.21279972    -0.15300
C1644       C  0.37735125  0.20027682  0.20174132     0.37000
N1645       N  0.37815200  0.17449979  0.21324161    -0.89600
H1646       H  0.34963603  0.18957563  0.17126387     0.18100
H1647       H  0.40175421  0.26218867  0.20994724     0.18100
N1648       N  0.37432404  0.27712775  0.16917986    -0.88600
H1649       H  0.36629821  0.16152946  0.20263661     0.35500
H1650       H  0.37003449  0.17577606  0.23205270     0.40600
H1651       H  0.35487872  0.28367571  0.16936207     0.40200
H1652       H  0.38100902  0.27681970  0.14978792     0.35100
C1653       C  0.27628863  0.25737278  0.98889284    -0.26700
C1654       C  0.24926090  0.26272871  0.98858818    -0.14700
C1655       C  0.23643656  0.26798018  0.01282332     0.35900
C1656       C  0.25058748  0.26628776  0.03654025    -0.26100
C1657       C  0.27740365  0.26022878  0.03680725    -0.15300
C1658       C  0.29045802  0.25595326  0.01258370     0.37000
N1659       N  0.31785136  0.24911485  0.01206729    -0.89600
H1660       H  0.28633903  0.25337364  0.97057323     0.18100
H1661       H  0.24058001  0.26974563  0.05499754     0.18100
N1662       N  0.20897318  0.27444777  0.01351058    -0.88600
H1663       H  0.32452735  0.24713695  0.99275303     0.35500
H1664       H  0.31980947  0.23061606  0.02079521     0.40600
H1665       H  0.20679542  0.29292582  0.00481642     0.40200
H1666       H  0.20240737  0.27642236  0.03286979     0.35100
C1667       C  0.21425154  0.37020557  0.88327409    -0.26700
C1668       C  0.22811578  0.36913644  0.85937032    -0.14700
C1669       C  0.23783379  0.34479317  0.85046769     0.35900
C1670       C  0.23362309  0.32218054  0.86560973    -0.26100
C1671       C  0.21950922  0.32296569  0.88937108    -0.15300
C1672       C  0.20956593  0.34730220  0.89824872     0.37000
N1673       N  0.19506718  0.34878215  0.92240522    -0.89600
H1674       H  0.20688949  0.38896176  0.89016485     0.18100
H1675       H  0.24116871  0.30360067  0.85845681     0.18100
N1676       N  0.25282978  0.34318742  0.82658073    -0.88600
H1677       H  0.18894646  0.36807182  0.92596834     0.35500
H1678       H  0.20787506  0.34378209  0.93764663     0.40600
H1679       H  0.23990571  0.34618920  0.81093669     0.40200
H1680       H  0.26047380  0.32428221  0.82405126     0.35100
C1681       C  0.33052492  0.41072669  0.78966554    -0.26700
C1682       C  0.31606217  0.40691831  0.81277790    -0.14700
C1683       C  0.32430545  0.38735439  0.83090250     0.35900
C1684       C  0.34612122  0.37161078  0.82480680    -0.26100
C1685       C  0.36008889  0.37505285  0.80135745    -0.15300
C1686       C  0.35251854  0.39514594  0.78381171     0.37000
N1687       N  0.36659175  0.39900700  0.75963153    -0.89600
H1688       H  0.32398193  0.42532675  0.77561340     0.18100
H1689       H  0.35209203  0.35639475  0.83845323     0.18100
N1690       N  0.31039726  0.38173063  0.85483194    -0.88600
H1691       H  0.35858312  0.41464255  0.74899181     0.35500
H1692       H  0.36403266  0.38216498  0.74815386     0.40600
H1693       H  0.29393997  0.39360852  0.85727776     0.40200
H1694       H  0.32301765  0.38590082  0.87047452     0.35100
C1695       C  0.28876822  0.27803911  0.51640014    -0.26700
C1696       C  0.27470883  0.27691805  0.54016944    -0.14700
C1697       C  0.24724292  0.27384726  0.53915213     0.35900
C1698       C  0.23433190  0.27373042  0.51473553    -0.26100
C1699       C  0.24826457  0.27671552  0.49101221    -0.15300
C1700       C  0.27589366  0.27802901  0.49201726     0.37000
N1701       N  0.29106220  0.27973671  0.46840293    -0.89600
H1702       H  0.30993184  0.28004566  0.51662839     0.18100
H1703       H  0.21313267  0.27217320  0.51450541     0.18100
N1704       N  0.23229681  0.27105189  0.56280248    -0.88600
H1705       H  0.30403513  0.26381579  0.46797253     0.35500
H1706       H  0.30215791  0.29698831  0.46917274     0.40600
H1707       H  0.22216983  0.25322195  0.56184937     0.40200
H1708       H  0.21845867  0.28621661  0.56346522     0.35100
C1709       C  0.36255583  0.32799850  0.71497712    -0.26700
C1710       C  0.38992555  0.32566036  0.71316690    -0.14700
C1711       C  0.40161083  0.32031613  0.68863840     0.35900
C1712       C  0.38537910  0.31622019  0.66678715    -0.26100
C1713       C  0.35777033  0.31715000  0.66879564    -0.15300
C1714       C  0.34629356  0.32379651  0.69318598     0.37000
N1715       N  0.31827965  0.32557854  0.69611859    -0.89600
H1716       H  0.35372584  0.33219712  0.73390482     0.18100
H1717       H  0.39456621  0.31142449  0.64820165     0.18100
N1718       N  0.42948730  0.31738656  0.68534544    -0.88600
H1719       H  0.31332966  0.33214402  0.71493940     0.35500
H1720       H  0.31071252  0.30656733  0.69453651     0.40600
H1721       H  0.43957452  0.31996721  0.70297155     0.40200
H1722       H  0.43579851  0.33226871  0.67269430     0.35100
C1723       C  0.12520110  0.24545942  0.83047012    -0.26700
C1724       C  0.13322098  0.22611014  0.81268054    -0.14700
C1725       C  0.15619196  0.21147116  0.81782805     0.35900
C1726       C  0.17092425  0.21671923  0.84040218    -0.26100
C1727       C  0.16330518  0.23649772  0.85804070    -0.15300
C1728       C  0.13991512  0.25079890  0.85319808     0.37000
N1729       N  0.13169383  0.27136004  0.87075710    -0.89600
H1730       H  0.10794953  0.25712578  0.82605640     0.18100
H1731       H  0.18867714  0.20552797  0.84395099     0.18100
N1732       N  0.16570903  0.19211500  0.79974901    -0.88600
H1733       H  0.11397499  0.27962698  0.86450436     0.35500
H1734       H  0.14572853  0.28630570  0.86982064     0.40600
H1735       H  0.16926265  0.20129125  0.78175094     0.40200
H1736       H  0.15108691  0.17798252  0.79706854     0.35100
C1737       C  0.19553413  0.19280519  0.72926060    -0.26700
C1738       C  0.17124661  0.18137353  0.72336716    -0.14700
C1739       C  0.17064805  0.15519073  0.71361963     0.35900
C1740       C  0.19404718  0.14102307  0.71082683    -0.26100
C1741       C  0.21804751  0.15206174  0.71817067    -0.15300
C1742       C  0.21891504  0.17846413  0.72685145     0.37000
N1743       N  0.24360071  0.19067105  0.73308865    -0.89600
H1744       H  0.19626016  0.21283048  0.73645550     0.18100
H1745       H  0.19335537  0.12095278  0.70374354     0.18100
N1746       N  0.14673667  0.14243733  0.70616984    -0.88600
H1747       H  0.24078959  0.21000558  0.73944357     0.35500
H1748       H  0.25452911  0.19174071  0.71573941     0.40600
H1749       H  0.13690776  0.15426719  0.69256491     0.40200
H1750       H  0.13503449  0.13988209  0.72281157     0.35100
C1751       C  0.31036520  0.20380873  0.68414724    -0.26700
C1752       C  0.30809197  0.17938505  0.67162174    -0.14700
C1753       C  0.31061303  0.17810162  0.64390218     0.35900
C1754       C  0.31376232  0.20124446  0.62929858    -0.26100
C1755       C  0.31413418  0.22560951  0.64184904    -0.15300
C1756       C  0.31323210  0.22687476  0.66947179     0.37000
N1757       N  0.31508994  0.25168584  0.68264443    -0.89600
H1758       H  0.30888962  0.20520597  0.70533204     0.18100
H1759       H  0.31477786  0.20023293  0.60806061     0.18100
N1760       N  0.30961089  0.15343720  0.63038525    -0.88600
H1761       H  0.33128830  0.25104373  0.69523163     0.35500
H1762       H  0.29824688  0.25416470  0.69410641     0.40600
H1763       H  0.32704521  0.15120354  0.61978915     0.40200
H1764       H  0.29408117  0.15412029  0.61698214     0.35100
C1765       C  0.73643904  0.28493190  0.98155518    -0.26700
C1766       C  0.76234001  0.27543070  0.98086751    -0.14700
C1767       C  0.77331591  0.26473869  0.00415329     0.35900
C1768       C  0.75924977  0.26627662  0.02782373    -0.26100
C1769       C  0.73408836  0.27726951  0.02877087    -0.15300
C1770       C  0.72216978  0.28593261  0.00524746     0.37000
N1771       N  0.69617342  0.29693348  0.00567227    -0.89600
H1772       H  0.72771875  0.29283592  0.96383653     0.18100
H1773       H  0.76812216  0.25910279  0.04579038     0.18100
N1774       N  0.79893868  0.25286141  0.00393821    -0.88600
H1775       H  0.69019992  0.30211686  0.98672271     0.35500
H1776       H  0.69692843  0.31436020  0.01652281     0.40600
H1777       H  0.79782309  0.23598878  0.99226920     0.40200
H1778       H  0.80426522  0.24657500  0.02274442     0.35100
C1779       C  0.00990235  0.29978739  0.75474865    -0.26700
C1780       C  0.98687051  0.28451691  0.75432085    -0.14700
C1781       C  0.98921604  0.25685416  0.75453386     0.35900
C1782       C  0.01431761  0.24528135  0.75372594    -0.26100
C1783       C  0.03730080  0.26060906  0.75275209    -0.15300
C1784       C  0.03490758  0.28816555  0.75388860     0.37000
N1785       N  0.05774580  0.30453257  0.75398834    -0.89600
H1786       H  0.00860219  0.32103528  0.75486580     0.18100
H1787       H  0.01583583  0.22406071  0.75314924     0.18100
N1788       N  0.96620707  0.24055051  0.75522950    -0.88600
H1789       H  0.05733224  0.31597695  0.77103846     0.35500
H1790       H  0.05663449  0.31716851  0.73784104     0.40600
H1791       H  0.95691755  0.24378489  0.77325642     0.40200
H1792       H  0.97135038  0.22066465  0.75478718     0.35100
C1793       C  0.89462749  0.29566585  0.83112413    -0.26700
C1794       C  0.89093329  0.31835462  0.81605376    -0.14700
C1795       C  0.87071831  0.33612488  0.82261283     0.35900
C1796       C  0.85378582  0.33019710  0.84360382    -0.26100
C1797       C  0.85700980  0.30707104  0.85822471    -0.15300
C1798       C  0.87796160  0.28984288  0.85224355     0.37000
N1799       N  0.88151688  0.26591244  0.86684861    -0.89600
H1800       H  0.90979503  0.28179814  0.82553130     0.18100
H1801       H  0.83789120  0.34350928  0.84842982     0.18100
N1802       N  0.86638041  0.35913051  0.80682121    -0.88600
H1803       H  0.89788267  0.25555986  0.86000703     0.35500
H1804       H  0.86518882  0.25399209  0.86332988     0.40600
H1805       H  0.88263488  0.37141286  0.80919785     0.40200
H1806       H  0.85011118  0.36962905  0.81366210     0.35100
C1807       C  0.80534066  0.17210355  0.87868056    -0.26700
C1808       C  0.79119975  0.17261023  0.85498085    -0.14700
C1809       C  0.78087904  0.19649649  0.84588423     0.35900
C1810       C  0.78491732  0.21943684  0.86040268    -0.26100
C1811       C  0.79912944  0.21921988  0.88413515    -0.15300
C1812       C  0.80960581  0.19510148  0.89322096     0.37000
N1813       N  0.82408628  0.19312780  0.91723793    -0.89600
H1814       H  0.81319429  0.15368517  0.88593477     0.18100
H1815       H  0.77670537  0.23759461  0.85291382     0.18100
N1816       N  0.76538652  0.19740738  0.82241962    -0.88600
H1817       H  0.81244655  0.20033355  0.93254557     0.35500
H1818       H  0.84102093  0.20457000  0.91566423     0.40600
H1819       H  0.77416078  0.21067396  0.80944994     0.40200
H1820       H  0.74679963  0.20463781  0.82729603     0.35100
C1821       C  0.72932935  0.26488163  0.51464175    -0.26700
C1822       C  0.74427114  0.26224886  0.53776383    -0.14700
C1823       C  0.77188887  0.26196702  0.53570006     0.35900
C1824       C  0.78382386  0.26287265  0.51086560    -0.26100
C1825       C  0.76883731  0.26380094  0.48767923    -0.15300
C1826       C  0.74130667  0.26554411  0.48976079     0.37000
N1827       N  0.72536030  0.26779026  0.46671683    -0.89600
H1828       H  0.70810449  0.26549292  0.51570691     0.18100
H1829       H  0.80503298  0.26176645  0.50979546     0.18100
N1830       N  0.78801045  0.26037761  0.55868597    -0.88600
H1831       H  0.71439167  0.28509771  0.46821396     0.35500
H1832       H  0.71228644  0.25197653  0.46644033     0.40600
H1833       H  0.80039946  0.27673511  0.55893563     0.40200
H1834       H  0.79969328  0.24354412  0.55716315     0.35100
C1835       C  0.82907724  0.40335316  0.71309355    -0.26700
C1836       C  0.80509777  0.39215140  0.72047019    -0.14700
C1837       C  0.80480723  0.36631452  0.73062843     0.35900
C1838       C  0.82833641  0.35252802  0.73396798    -0.26100
C1839       C  0.85247586  0.36397258  0.72760083    -0.15300
C1840       C  0.85274180  0.38974565  0.71682123     0.37000
N1841       N  0.87654940  0.40250062  0.70904456    -0.89600
H1842       H  0.82950824  0.42302730  0.70497483     0.18100
H1843       H  0.82767280  0.33284529  0.74206008     0.18100
N1844       N  0.78053040  0.35370872  0.73713920    -0.88600
H1845       H  0.88654756  0.39032336  0.69586438     0.35500
H1846       H  0.88817432  0.40560746  0.72564823     0.40600
H1847       H  0.78121172  0.34832242  0.75694259     0.40200
H1848       H  0.77898996  0.33657202  0.72592032     0.35100
C1849       C  0.73839305  0.35573106  0.65029233    -0.26700
C1850       C  0.71828352  0.36405627  0.66715552    -0.14700
C1851       C  0.69396573  0.35077867  0.66688764     0.35900
C1852       C  0.69062261  0.32889309  0.65044630    -0.26100
C1853       C  0.71132915  0.31975337  0.63465975    -0.15300
C1854       C  0.73527834  0.33357790  0.63424464     0.37000
N1855       N  0.75650059  0.32471825  0.61784853    -0.89600
H1856       H  0.75690885  0.36619948  0.65016490     0.18100
H1857       H  0.67224330  0.31821336  0.65099074     0.18100
N1858       N  0.67239050  0.35922724  0.68283240    -0.88600
H1859       H  0.77285566  0.33691615  0.61998046     0.35500
H1860       H  0.75038842  0.32641744  0.59832005     0.40600
H1861       H  0.66824282  0.37883252  0.67830699     0.40200
H1862       H  0.67800855  0.35814978  0.70253824     0.35100
C1863       C  0.51242597  0.24601201  0.76527885    -0.26700
C1864       C  0.53624619  0.25880108  0.77132315    -0.14700
C1865       C  0.53558398  0.28624854  0.77606457     0.35900
C1866       C  0.51162869  0.29969572  0.77551722    -0.26100
C1867       C  0.48775307  0.28664775  0.77094188    -0.15300
C1868       C  0.48826575  0.25956391  0.76511276     0.37000
N1869       N  0.46433420  0.24585257  0.75923589    -0.89600
H1870       H  0.51244585  0.22509126  0.76138773     0.18100
H1871       H  0.51166869  0.32053017  0.77992089     0.18100
N1872       N  0.55865713  0.30113847  0.78204693    -0.88600
H1873       H  0.46807021  0.22597636  0.75562045     0.35500
H1874       H  0.45686735  0.25367400  0.74177841     0.40600
H1875       H  0.57229026  0.29857153  0.76692153     0.40200
H1876       H  0.56653698  0.29446657  0.79977758     0.35100
C1877       C  0.67772143  0.23315643  0.69556015    -0.26700
C1878       C  0.66615833  0.22817026  0.67113253    -0.14700
C1879       C  0.64032634  0.21810288  0.67021301     0.35900
C1880       C  0.62616110  0.21443769  0.69360992    -0.26100
C1881       C  0.63728907  0.22089230  0.71793287    -0.15300
C1882       C  0.66359010  0.22963777  0.71886142     0.37000
N1883       N  0.67621312  0.23465999  0.74350162    -0.89600
H1884       H  0.69765258  0.24049087  0.69662334     0.18100
H1885       H  0.60621770  0.20713195  0.69267677     0.18100
N1886       N  0.62848361  0.21134061  0.64561766    -0.88600
H1887       H  0.68258537  0.25417808  0.74357369     0.35500
H1888       H  0.69273793  0.22253364  0.74481154     0.40600
H1889       H  0.61121251  0.22226525  0.64363811     0.40200
H1890       H  0.62341500  0.19144922  0.64622645     0.35100
C1891       C  0.66143062  0.14091878  0.79281378    -0.26700
C1892       C  0.65860091  0.16461383  0.80678625    -0.14700
C1893       C  0.67714645  0.17096611  0.82636536     0.35900
C1894       C  0.69849280  0.15412976  0.83092387    -0.26100
C1895       C  0.70204194  0.13139562  0.81580220    -0.15300
C1896       C  0.68319440  0.12463181  0.79672892     0.37000
N1897       N  0.68604844  0.10167563  0.78067494    -0.89600
H1898       H  0.64736210  0.13563399  0.77776111     0.18100
H1899       H  0.71328665  0.15976745  0.84515297     0.18100
N1900       N  0.67470564  0.19466387  0.84134005    -0.88600
H1901       H  0.68773517  0.08535363  0.79301952     0.35500
H1902       H  0.70333525  0.10332146  0.76976118     0.40600
H1903       H  0.69166953  0.20582916  0.83841852     0.40200
H1904       H  0.67379904  0.18959391  0.86121310     0.35100
C1905       C  0.24423203  0.01639497  0.23699734    -0.26700
C1906       C  0.24804898  0.99351041  0.25204806    -0.14700
C1907       C  0.25413106  0.99602382  0.27883893     0.35900
C1908       C  0.25539455  0.02109097  0.29025972    -0.26100
C1909       C  0.25012133  0.04401803  0.27558217    -0.15300
C1910       C  0.24492240  0.04147559  0.24850746     0.37000
N1911       N  0.23960834  0.06411922  0.23268957    -0.89600
H1912       H  0.23945560  0.01482420  0.21631708     0.18100
H1913       H  0.25960822  0.02241162  0.31106997     0.18100
N1914       N  0.25892499  0.97321301  0.29458885    -0.88600
H1915       H  0.22093981  0.06193736  0.22445669     0.35500
H1916       H  0.25327010  0.06454737  0.21737772     0.40600
H1917       H  0.24542797  0.97319449  0.31005533     0.40200
H1918       H  0.27773609  0.97483411  0.30261640     0.35100
C1919       C  0.48402522  0.75753270  0.26290655    -0.26700
C1920       C  0.48181483  0.78397591  0.25552513    -0.14700
C1921       C  0.50501758  0.79851390  0.25066906     0.35900
C1922       C  0.52954592  0.78580485  0.25147027    -0.26100
C1923       C  0.53172168  0.75896897  0.25747846    -0.15300
C1924       C  0.50867673  0.74504207  0.26461874     0.37000
N1925       N  0.51018795  0.71816540  0.27316080    -0.89600
H1926       H  0.46639051  0.74654528  0.26740561     0.18100
H1927       H  0.54701811  0.79683694  0.24649729     0.18100
N1928       N  0.50367415  0.82596788  0.24413012    -0.88600
H1929       H  0.49147419  0.71070016  0.27702710     0.35500
H1930       H  0.52025921  0.71798745  0.29105103     0.40600
H1931       H  0.49428347  0.82760195  0.22600085     0.40200
H1932       H  0.52247314  0.83380381  0.24162985     0.35100
C1933       C  0.29660184  0.86238889  0.23180065    -0.26700
C1934       C  0.29844273  0.88773342  0.22081819    -0.14700
C1935       C  0.32304302  0.89662613  0.21182037     0.35900
C1936       C  0.34518502  0.88061631  0.21485082    -0.26100
C1937       C  0.34350073  0.85551185  0.22633694    -0.15300
C1938       C  0.31880366  0.84613265  0.23457553     0.37000
N1939       N  0.31640391  0.82060197  0.24641612    -0.89600
H1940       H  0.27770683  0.85529604  0.23849124     0.18100
H1941       H  0.36403422  0.88806783  0.20841729     0.18100
N1942       N  0.32638987  0.92215037  0.20050088    -0.88600
H1943       H  0.29680162  0.81657722  0.25095618     0.35500
H1944       H  0.32653108  0.82101778  0.26426396     0.40600
H1945       H  0.31952177  0.93619119  0.21383261     0.40200
H1946       H  0.31521977  0.92323882  0.18333307     0.35100
C1947       C  0.34931491  0.83061968  0.34466926    -0.26700
C1948       C  0.35028852  0.80703934  0.35884190    -0.14700
C1949       C  0.36855095  0.78738755  0.35154868     0.35900
C1950       C  0.38444926  0.79118902  0.32960359    -0.26100
C1951       C  0.38314622  0.81449365  0.31506252    -0.15300
C1952       C  0.36575644  0.83466262  0.32286508     0.37000
N1953       N  0.36403710  0.85862443  0.30800962    -0.89600
H1954       H  0.33553807  0.84577732  0.35049569     0.18100
H1955       H  0.39748109  0.77550779  0.32342436     0.18100
N1956       N  0.37055441  0.76287290  0.36525665    -0.88600
H1957       H  0.35055762  0.87151536  0.31661890     0.35500
H1958       H  0.35658811  0.85396249  0.28946349     0.40600
H1959       H  0.35204036  0.75404900  0.36575647     0.40200
H1960       H  0.37682083  0.76648140  0.38445012     0.35100
C1961       C  0.21318581  0.81510424  0.16850358    -0.26700
C1962       C  0.20253726  0.81745695  0.14312599    -0.14700
C1963       C  0.19330707  0.84205333  0.13444397     0.35900
C1964       C  0.19623081  0.86405471  0.15096740    -0.26100
C1965       C  0.20777083  0.86164244  0.17597369    -0.15300
C1966       C  0.21584488  0.83687071  0.18491518     0.37000
N1967       N  0.22809217  0.83393838  0.21007683    -0.89600
H1968       H  0.21990859  0.79619154  0.17563318     0.18100
H1969       H  0.19009459  0.88325422  0.14410661     0.18100
N1970       N  0.18181313  0.84476457  0.10881905    -0.88600
H1971       H  0.24688132  0.82617416  0.20719309     0.35500
H1972       H  0.21722561  0.82033686  0.22093671     0.40600
H1973       H  0.19641868  0.84069267  0.09497841     0.40200
H1974       H  0.17590327  0.86417929  0.10561357     0.35100
C1975       C  0.26858941  0.51621109  0.29753643    -0.26700
C1976       C  0.26328783  0.53906479  0.28291236    -0.14700
C1977       C  0.25722540  0.53654767  0.25599615     0.35900
C1978       C  0.25822527  0.51160149  0.24403452    -0.26100
C1979       C  0.26514658  0.48888532  0.25828405    -0.15300
C1980       C  0.26968638  0.49132016  0.28553459     0.37000
N1981       N  0.27596070  0.46874712  0.30110604    -0.89600
H1982       H  0.27299230  0.51773215  0.31830153     0.18100
H1983       H  0.25425797  0.51010130  0.22319453     0.18100
N1984       N  0.25025361  0.55931917  0.24082214    -0.88600
H1985       H  0.26197271  0.46722052  0.31604895     0.35500
H1986       H  0.29425188  0.47188263  0.30985590     0.40600
H1987       H  0.23262199  0.56664037  0.24838688     0.40200
H1988       H  0.24656289  0.55416284  0.22129447     0.35100
C1989       C  0.28608160  0.67640735  0.38597006    -0.26700
C1990       C  0.28719919  0.67688680  0.35828245    -0.14700
C1991       C  0.29124725  0.70119175  0.34563146     0.35900
C1992       C  0.29375231  0.72418749  0.36063785    -0.26100
C1993       C  0.29250784  0.72363932  0.38819806    -0.15300
C1994       C  0.28847748  0.69938752  0.40106498     0.37000
N1995       N  0.28593680  0.69727335  0.42912385    -0.89600
H1996       H  0.28284031  0.65801139  0.39615530     0.18100
H1997       H  0.29680259  0.74272751  0.35060558     0.18100
N1998       N  0.29262111  0.70280429  0.31758677    -0.88600
H1999       H  0.26711440  0.69016382  0.43310724     0.35500
H2000       H  0.28715161  0.71554391  0.43831741     0.40600
H2001       H  0.31074378  0.71097883  0.31253748     0.40200
H2002       H  0.27788574  0.71559937  0.31118246     0.35100
C2003       C  0.97969020  0.75825079  0.27259510    -0.26700
C2004       C  0.98134821  0.78560067  0.26931215    -0.14700
C2005       C  0.00644823  0.79697383  0.26528634     0.35900
C2006       C  0.02909272  0.78110088  0.26669450    -0.26100
C2007       C  0.02745066  0.75397427  0.27129703    -0.15300
C2008       C  0.00229122  0.74234621  0.27366814     0.37000
N2009       N  0.99964513  0.71458673  0.27821921    -0.89600
H2010       H  0.96064659  0.74924549  0.27540435     0.18100
H2011       H  0.04822868  0.79006016  0.26437786     0.18100
N2012       N  0.00908426  0.82467562  0.26047646    -0.88600
H2013       H  0.97987659  0.70911959  0.27860410     0.35500
H2014       H  0.00709393  0.71064575  0.29694281     0.40600
H2015       H  0.00072710  0.82852696  0.24212264     0.40200
H2016       H  0.02885182  0.82995783  0.25900629     0.35100
C2017       C  0.12881485  0.73717433  0.17014630    -0.26700
C2018       C  0.15431000  0.72661624  0.16815487    -0.14700
C2019       C  0.16325351  0.70924313  0.18785425     0.35900
C2020       C  0.14713019  0.70406253  0.20965644    -0.26100
C2021       C  0.12222982  0.71557086  0.21207090    -0.15300
C2022       C  0.11278811  0.73208781  0.19192444     0.37000
N2023       N  0.08740545  0.74442438  0.19311005    -0.89600
H2024       H  0.12149841  0.75028983  0.15506503     0.18100
H2025       H  0.15445090  0.69178265  0.22542887     0.18100
N2026       N  0.18870885  0.69720209  0.18591282    -0.88600
H2027       H  0.09035131  0.76469745  0.19460255     0.35500
H2028       H  0.07691633  0.73866595  0.20974369     0.40600
H2029       H  0.18840404  0.68466210  0.16964440     0.40200
H2030       H  0.19241274  0.68538181  0.20229131     0.35100
C2031       C  0.17209122  0.67265849  0.32271154    -0.26700
C2032       C  0.15558751  0.66576454  0.30177632    -0.14700
C2033       C  0.16114877  0.64284247  0.28700835     0.35900
C2034       C  0.18372617  0.62803647  0.29282772    -0.26100
C2035       C  0.20048772  0.63537534  0.31331816    -0.15300
C2036       C  0.19434051  0.65766639  0.32866751     0.37000
N2037       N  0.21108097  0.66624981  0.34956701    -0.89600
H2038       H  0.16783421  0.68998757  0.33434097     0.18100
H2039       H  0.18881352  0.61124769  0.28074544     0.18100
N2040       N  0.14445081  0.63521421  0.26556390    -0.88600
H2041       H  0.22961291  0.67028207  0.34177958     0.35500
H2042       H  0.21288117  0.65095453  0.36313840     0.40600
H2043       H  0.15117528  0.61780900  0.25695795     0.40200
H2044       H  0.14578114  0.64977011  0.25115073     0.35100
C2045       C  0.26378727  0.02311366  0.79214993    -0.26700
C2046       C  0.26389059  0.99955828  0.77759638    -0.14700
C2047       C  0.26511007  0.00100439  0.74992032     0.35900
C2048       C  0.26760431  0.02572869  0.73771589    -0.26100
C2049       C  0.26897790  0.04912762  0.75248088    -0.15300
C2050       C  0.26643712  0.04765918  0.77994925     0.37000
N2051       N  0.26677724  0.07098981  0.79567411    -0.89600
H2052       H  0.26267556  0.02257854  0.81338997     0.18100
H2053       H  0.26930123  0.02659407  0.71652816     0.18100
N2054       N  0.26434757  0.97748569  0.73430176    -0.88600
H2055       H  0.28225526  0.06944222  0.80906152     0.35500
H2056       H  0.24924637  0.07180444  0.80631446     0.40600
H2057       H  0.26596084  0.98197530  0.71433293     0.40200
H2058       H  0.24585734  0.96898503  0.73688896     0.35100
C2059       C  0.18240978  0.85782741  0.81151965    -0.26700
C2060       C  0.15815586  0.87030750  0.80776351    -0.14700
C2061       C  0.15701822  0.89824428  0.80899128     0.35900
C2062       C  0.18007782  0.91273618  0.81296898    -0.26100
C2063       C  0.20430998  0.90004478  0.81517948    -0.15300
C2064       C  0.20543348  0.87235223  0.81514490     0.37000
N2065       N  0.23013862  0.85908724  0.81858715    -0.89600
H2066       H  0.18362043  0.83658284  0.81091133     0.18100
H2067       H  0.17920689  0.93401186  0.81318941     0.18100
N2068       N  0.13296004  0.91254550  0.80619708    -0.88600
H2069       H  0.22770209  0.83871283  0.81766871     0.35500
H2070       H  0.23677010  0.86330417  0.83754548     0.40600
H2071       H  0.11954061  0.90563818  0.82008832     0.40200
H2072       H  0.12554772  0.90953015  0.78730646     0.35100
C2073       C  0.24182851  0.77127068  0.99300780    -0.26700
C2074       C  0.26830974  0.76384692  0.99231959    -0.14700
C2075       C  0.28126919  0.75795367  0.01617253     0.35900
C2076       C  0.26721178  0.75873382  0.03996573    -0.26100
C2077       C  0.24036866  0.76506388  0.04063791    -0.15300
C2078       C  0.22780791  0.77237275  0.01683408     0.37000
N2079       N  0.20074783  0.78039884  0.01670810    -0.89600
H2080       H  0.23198355  0.77618730  0.97479575     0.18100
H2081       H  0.27710416  0.75322782  0.05796991     0.18100
N2082       N  0.30836953  0.75002980  0.01610594    -0.88600
H2083       H  0.19438421  0.78432374  0.99758259     0.35500
H2084       H  0.19954107  0.79815701  0.02696631     0.40600
H2085       H  0.30957157  0.73199764  0.00632436     0.40200
H2086       H  0.31503132  0.74672182  0.03524165     0.35100
C2087       C  0.31819467  0.83314495  0.87727783    -0.26700
C2088       C  0.30013102  0.82663122  0.89701796    -0.14700
C2089       C  0.27826440  0.84287998  0.90138709     0.35900
C2090       C  0.27448456  0.86517983  0.88569475    -0.26100
C2091       C  0.29175274  0.87097918  0.86498443    -0.15300
C2092       C  0.31401338  0.85505353  0.86103709     0.37000
N2093       N  0.33238816  0.86108598  0.84064017    -0.89600
H2094       H  0.33485029  0.82041119  0.87354399     0.18100
H2095       H  0.25739717  0.87742630  0.88906513     0.18100
N2096       N  0.25968042  0.83650454  0.92149857    -0.88600
H2097       H  0.33360373  0.84484504  0.82812140     0.35500
H2098       H  0.35079885  0.86381718  0.84927233     0.40600
H2099       H  0.24126951  0.83435463  0.91270219     0.40200
H2100       H  0.25866398  0.85236412  0.93451359     0.35100
C2101       C  0.33372358  0.74595945  0.83255586    -0.26700
C2102       C  0.34614009  0.74034556  0.85644457    -0.14700
C2103       C  0.37269100  0.73217608  0.85626214     0.35900
C2104       C  0.38632407  0.73013423  0.83234220    -0.26100
C2105       C  0.37404878  0.73657461  0.80860384    -0.15300
C2106       C  0.34735180  0.74418068  0.80868457     0.37000
N2107       N  0.33401602  0.74956716  0.78440018    -0.89600
H2108       H  0.31337794  0.75216638  0.83250180     0.18100
H2109       H  0.40668493  0.72396705  0.83238581     0.18100
N2110       N  0.38585186  0.72569621  0.88025426    -0.88600
H2111       H  0.31450822  0.75495447  0.78782716     0.35500
H2112       H  0.33348364  0.73199139  0.77380598     0.40600
H2113       H  0.40226576  0.73787605  0.88200910     0.40200
H2114       H  0.39244916  0.70628430  0.87889878     0.35100
C2115       C  0.25564098  0.52924659  0.73887455    -0.26700
C2116       C  0.24996944  0.55264482  0.75259232    -0.14700
C2117       C  0.24790955  0.55148875  0.78021954     0.35900
C2118       C  0.25005723  0.52715793  0.79323706    -0.26100
C2119       C  0.25392385  0.50359782  0.77927228    -0.15300
C2120       C  0.25752056  0.50493625  0.75185236     0.37000
N2121       N  0.26293069  0.48165123  0.73699113    -0.89600
H2122       H  0.25778152  0.52953237  0.71770789     0.18100
H2123       H  0.24746865  0.52663209  0.81435058     0.18100
N2124       N  0.24307122  0.57480205  0.79520007    -0.88600
H2125       H  0.28079677  0.48429241  0.72724762     0.35500
H2126       H  0.24824638  0.47956170  0.72280810     0.40600
H2127       H  0.25834951  0.57696721  0.80872519     0.40200
H2128       H  0.22564246  0.57216257  0.80570528     0.35100
C2129       C  0.29642144  0.68161971  0.71585411    -0.26700
C2130       C  0.29956885  0.65444349  0.71226088    -0.14700
C2131       C  0.32496433  0.64382187  0.71024891     0.35900
C2132       C  0.34676307  0.66048007  0.71372527    -0.26100
C2133       C  0.34358271  0.68758017  0.71869877    -0.15300
C2134       C  0.31807925  0.69827695  0.71872297     0.37000
N2135       N  0.31389981  0.72586773  0.72237430    -0.89600
H2136       H  0.27686802  0.68999751  0.71677641     0.18100
H2137       H  0.36632247  0.65214759  0.71305236     0.18100
N2138       N  0.32851805  0.61620766  0.70553919    -0.88600
H2139       H  0.30166444  0.72841129  0.73865882     0.35500
H2140       H  0.30392569  0.73300638  0.70590936     0.40600
H2141       H  0.32101163  0.60609977  0.72174861     0.40200
H2142       H  0.34848888  0.61159434  0.70448045     0.35100
C2143       C  0.21922362  0.79364955  0.51207665    -0.26700
C2144       C  0.23183421  0.78262545  0.53402411    -0.14700
C2145       C  0.25675895  0.77130540  0.53089501     0.35900
C2146       C  0.26903870  0.77190536  0.50625043    -0.26100
C2147       C  0.25710014  0.78401829  0.48437927    -0.15300
C2148       C  0.23159015  0.79464173  0.48732196     0.37000
N2149       N  0.21873232  0.80736546  0.46565509    -0.89600
H2150       H  0.20001102  0.80247607  0.51449968     0.18100
H2151       H  0.28842940  0.76333543  0.50448617     0.18100
N2152       N  0.26966253  0.75909240  0.55270012    -0.88600
H2153       H  0.20078230  0.81539677  0.47157797     0.35500
H2154       H  0.21429944  0.79288758  0.45179596     0.40600
H2155       H  0.28766874  0.76849862  0.55554280     0.40200
H2156       H  0.27343164  0.73951066  0.54775524     0.35100
C2157       C  0.22277943  0.68013428  0.63927993    -0.26700
C2158       C  0.20891646  0.67684911  0.66294181    -0.14700
C2159       C  0.18859954  0.69461710  0.66935264     0.35900
C2160       C  0.18357202  0.71603539  0.65259926    -0.26100
C2161       C  0.19860934  0.72004129  0.62987233    -0.15300
C2162       C  0.21814012  0.70170899  0.62301481     0.37000
N2163       N  0.23395941  0.70493559  0.59996813    -0.89600
H2164       H  0.23825378  0.66651373  0.63395283     0.18100
H2165       H  0.16894875  0.73051884  0.65808565     0.18100
N2166       N  0.17351100  0.69114371  0.69294489    -0.88600
H2167       H  0.24438139  0.72253839  0.60150357     0.35500
H2168       H  0.22148482  0.70621949  0.58371984     0.40600
H2169       H  0.16303390  0.67359166  0.69104098     0.40200
H2170       H  0.15959283  0.70612673  0.69488096     0.35100
C2171       C  0.17180812  0.80587612  0.69534793    -0.26700
C2172       C  0.15860969  0.80955511  0.67148817    -0.14700
C2173       C  0.13184505  0.81721181  0.67185600     0.35900
C2174       C  0.11880225  0.82007525  0.69603782    -0.26100
C2175       C  0.13179006  0.81531366  0.71978862    -0.15300
C2176       C  0.15877944  0.80849989  0.71933889     0.37000
N2177       N  0.17372711  0.80470593  0.74288210    -0.89600
H2178       H  0.19233195  0.80027018  0.69542255     0.18100
H2179       H  0.09828220  0.82567700  0.69634445     0.18100
N2180       N  0.11797421  0.82213883  0.64776516    -0.88600
H2181       H  0.16639910  0.78842366  0.75295753     0.35500
H2182       H  0.17187589  0.82143964  0.75466114     0.40600
H2183       H  0.12654073  0.83857763  0.63894625     0.40200
H2184       H  0.09841116  0.82708958  0.65151496     0.35100
C2185       C  0.76186264  0.00819727  0.74291704    -0.26700
C2186       C  0.76774127  0.98564606  0.75781720    -0.14700
C2187       C  0.76970293  0.98799975  0.78533559     0.35900
C2188       C  0.76759240  0.01287779  0.79708765    -0.26100
C2189       C  0.76376523  0.03562878  0.78185926    -0.15300
C2190       C  0.75997070  0.03301748  0.75461600     0.37000
N2191       N  0.75449136  0.05552089  0.73863638    -0.89600
H2192       H  0.75965906  0.00686806  0.72179637     0.18100
H2193       H  0.77020361  0.01446021  0.81814764     0.18100
N2194       N  0.77432610  0.96539275  0.80142402    -0.88600
H2195       H  0.73658224  0.05239834  0.72912346     0.35500
H2196       H  0.76911923  0.05689811  0.72430358     0.40600
H2197       H  0.75895260  0.96395093  0.81494547     0.40200
H2198       H  0.79170109  0.96843254  0.81190532     0.35100
C2199       C  0.74549202  0.75958772  0.53952780    -0.26700
C2200       C  0.77242579  0.76548459  0.53944435    -0.14700
C2201       C  0.78417480  0.77386044  0.51561371     0.35900
C2202       C  0.76948250  0.77346229  0.49222240    -0.26100
C2203       C  0.74306621  0.76589210  0.49210189    -0.15300
C2204       C  0.73069400  0.75965895  0.51618291     0.37000
N2205       N  0.70352248  0.75205833  0.51674271    -0.89600
H2206       H  0.73616724  0.75354825  0.55766089     0.18100
H2207       H  0.77881489  0.77878943  0.47385953     0.18100
N2208       N  0.81111471  0.78219690  0.51500980    -0.88600
H2209       H  0.69734822  0.74856971  0.53601645     0.35500
H2210       H  0.70187521  0.73417731  0.50677480     0.40600
H2211       H  0.81243525  0.79943905  0.52610199     0.40200
H2212       H  0.81679885  0.78713062  0.49590793     0.35100
C2213       C  0.80986483  0.86120970  0.64656219    -0.26700
C2214       C  0.80630171  0.85751497  0.67379659    -0.14700
C2215       C  0.80853249  0.83207844  0.68437410     0.35900
C2216       C  0.81246099  0.81079018  0.66753653    -0.26100
C2217       C  0.81438438  0.81433431  0.64028494    -0.15300
C2218       C  0.81392137  0.83975746  0.62963675     0.37000
N2219       N  0.81650046  0.84358551  0.60179198    -0.89600
H2220       H  0.80871453  0.88080101  0.63833170     0.18100
H2221       H  0.81322793  0.79115459  0.67577522     0.18100
N2222       N  0.80574688  0.82753711  0.71199664    -0.88600
H2223       H  0.81575032  0.86359450  0.59720517     0.35500
H2224       H  0.80026562  0.83488911  0.59274934     0.40600
H2225       H  0.82281693  0.81830805  0.71870239     0.40200
H2226       H  0.79003939  0.81464651  0.71483694     0.35100
C2227       C  0.77019814  0.77417236  0.98895978    -0.26700
C2228       C  0.74375758  0.78175256  0.98811261    -0.14700
C2229       C  0.73091825  0.78847725  0.01185878     0.35900
C2230       C  0.74485407  0.78782295  0.03568207    -0.26100
C2231       C  0.77154739  0.78101384  0.03658664    -0.15300
C2232       C  0.78414888  0.77333894  0.01290843     0.37000
N2233       N  0.81110980  0.76501441  0.01308013    -0.89600
H2234       H  0.77999814  0.76881675  0.97084612     0.18100
H2235       H  0.73495756  0.79377406  0.05355027     0.18100
N2236       N  0.70401956  0.79710652  0.01163701    -0.88600
H2237       H  0.81750465  0.76065884  0.99405686     0.35500
H2238       H  0.81206727  0.74744375  0.02367276     0.40600
H2239       H  0.70328119  0.81495128  0.00147935     0.40200
H2240       H  0.69742327  0.80100463  0.03068650     0.35100
C2241       C  0.50333520  0.80777783  0.75088166    -0.26700
C2242       C  0.52588556  0.79198145  0.75343696    -0.14700
C2243       C  0.52274592  0.76475309  0.75707819     0.35900
C2244       C  0.49754627  0.75371108  0.75683105    -0.26100
C2245       C  0.47498306  0.76919978  0.75277443    -0.15300
C2246       C  0.47794840  0.79673879  0.75051249     0.37000
N2247       N  0.45536812  0.81338271  0.74734909    -0.89600
H2248       H  0.50553394  0.82878431  0.74827798     0.18100
H2249       H  0.49583696  0.73260566  0.75897118     0.18100
N2250       N  0.54510070  0.74811174  0.76093173    -0.88600
H2251       H  0.46101825  0.83302431  0.74537303     0.35500
H2252       H  0.44439380  0.81221845  0.76465957     0.40600
H2253       H  0.54515216  0.73388465  0.74611593     0.40200
H2254       H  0.54290908  0.73851470  0.77894932     0.35100
C2255       C  0.64204076  0.83845789  0.82304218    -0.26700
C2256       C  0.62430957  0.81890169  0.81504615    -0.14700
C2257       C  0.62289948  0.79521630  0.82931339     0.35900
C2258       C  0.63983141  0.79117982  0.85071038    -0.26100
C2259       C  0.65853608  0.81010963  0.85791228    -0.15300
C2260       C  0.65926160  0.83422467  0.84416866     0.37000
N2261       N  0.67698259  0.85480504  0.85141167    -0.89600
H2262       H  0.64346729  0.85658340  0.81197010     0.18100
H2263       H  0.63883021  0.77285848  0.86150699     0.18100
N2264       N  0.60455574  0.77517610  0.82166309    -0.88600
H2265       H  0.69617281  0.84788279  0.84937972     0.35500
H2266       H  0.67375101  0.85953342  0.87114676     0.40600
H2267       H  0.58566924  0.78280923  0.82420751     0.40200
H2268       H  0.60605852  0.75886896  0.83405646     0.35100
C2269       C  0.68810011  0.84968390  0.73781418    -0.26700
C2270       C  0.66532789  0.86191007  0.72848836    -0.14700
C2271       C  0.66705597  0.88710574  0.71689788     0.35900
C2272       C  0.69165360  0.89950806  0.71498260    -0.26100
C2273       C  0.71435547  0.88741976  0.72481347    -0.15300
C2274       C  0.71245963  0.86223523  0.73630713     0.37000
N2275       N  0.73530991  0.84905851  0.74610736    -0.89600
H2276       H  0.68693615  0.83046811  0.74691314     0.18100
H2277       H  0.69306987  0.91878563  0.70607806     0.18100
N2278       N  0.64392590  0.89990713  0.70698885    -0.88600
H2279       H  0.73725302  0.83121880  0.73610593     0.35500
H2280       H  0.73227481  0.84491132  0.76598907     0.40600
H2281       H  0.63685916  0.88865451  0.69133659     0.40200
H2282       H  0.64856781  0.91838179  0.69931963     0.35100
C2283       C  0.98476928  0.77754069  0.76759208    -0.26700
C2284       C  0.98527207  0.75047912  0.77258566    -0.14700
C2285       C  0.00976100  0.73797560  0.77672583     0.35900
C2286       C  0.03288376  0.75312692  0.77713263    -0.26100
C2287       C  0.03223204  0.78047983  0.77337913    -0.15300
C2288       C  0.00784035  0.79261158  0.76752119     0.37000
N2289       N  0.00627914  0.82031937  0.76222280    -0.89600
H2290       H  0.96612222  0.78712200  0.76395683     0.18100
H2291       H  0.05142764  0.74357577  0.78129626     0.18100
N2292       N  0.01110434  0.71016333  0.78147489    -0.88600
H2293       H  0.98679566  0.82623720  0.75965215     0.35500
H2294       H  0.01568046  0.82363347  0.74427495     0.40600
H2295       H  0.00200309  0.70654133  0.79949432     0.40200
H2296       H  0.03058487  0.70404501  0.78352065     0.35100
C2297       C  0.89588619  0.73785473  0.69509430    -0.26700
C2298       C  0.89026206  0.71588345  0.71068040    -0.14700
C2299       C  0.87034443  0.69815984  0.70252915     0.35900
C2300       C  0.85621463  0.70343332  0.67944353    -0.26100
C2301       C  0.86150352  0.72576554  0.66424652    -0.15300
C2302       C  0.88184447  0.74286069  0.67196761     0.37000
N2303       N  0.88733773  0.76615566  0.65717190    -0.89600
H2304       H  0.91068173  0.75177619  0.70142929     0.18100
H2305       H  0.84057065  0.69024007  0.67363999     0.18100
N2306       N  0.86265279  0.67566636  0.71778415    -0.88600
H2307       H  0.90706177  0.76561906  0.65154927     0.35500
H2308       H  0.88464283  0.78238446  0.66948313     0.40600
H2309       H  0.87330856  0.67398524  0.73515115     0.40200
H2310       H  0.86679405  0.65890285  0.70665309     0.35100
C2311       C  0.75236452  0.54177140  0.75298515    -0.26700
C2312       C  0.74776674  0.54209255  0.78009014    -0.14700
C2313       C  0.74481798  0.51776666  0.79342409     0.35900
C2314       C  0.74548842  0.49417455  0.77928102    -0.26100
C2315       C  0.74901936  0.49386454  0.75193671    -0.15300
C2316       C  0.75307481  0.51824030  0.73882513     0.37000
N2317       N  0.75715571  0.52013355  0.71105681    -0.89600
H2318       H  0.75487065  0.56011053  0.74246548     0.18100
H2319       H  0.74241175  0.47593339  0.78980298     0.18100
N2320       N  0.73992242  0.51623422  0.82108781    -0.88600
H2321       H  0.74070222  0.51272239  0.70129299     0.35500
H2322       H  0.77385754  0.50933747  0.70600560     0.40600
H2323       H  0.72295407  0.52694122  0.82545822     0.40200
H2324       H  0.75590904  0.52424190  0.83112584     0.35100
C2325       C  0.80345023  0.66882689  0.80127076    -0.26700
C2326       C  0.80502459  0.64278731  0.81024050    -0.14700
C2327       C  0.82971480  0.63143665  0.81507179     0.35900
C2328       C  0.85247712  0.64628803  0.81002216    -0.26100
C2329       C  0.85086522  0.67229351  0.80064295    -0.15300
C2330       C  0.82599672  0.68366168  0.79626612     0.37000
N2331       N  0.82363774  0.70987868  0.78597636    -0.89600
H2332       H  0.78435797  0.67753242  0.79765587     0.18100
H2333       H  0.87156026  0.63751593  0.81339055     0.18100
N2334       N  0.83162879  0.60468956  0.82387730    -0.88600
H2335       H  0.80392275  0.71536244  0.78436197     0.35500
H2336       H  0.83120749  0.70972133  0.76688513     0.40600
H2337       H  0.82387921  0.60386832  0.84286567     0.40200
H2338       H  0.85129190  0.59902014  0.82540790     0.35100
C2339       C  0.72538129  0.70061334  0.84610567    -0.26700
C2340       C  0.71684944  0.67676751  0.85657685    -0.14700
C2341       C  0.70497165  0.67623805  0.88168474     0.35900
C2342       C  0.70260811  0.69971126  0.89613920    -0.26100
C2343       C  0.71219998  0.72344782  0.88603282    -0.15300
C2344       C  0.72332662  0.72384258  0.86056168     0.37000
N2345       N  0.73231232  0.74789619  0.84904001    -0.89600
H2346       H  0.73448604  0.70113995  0.82686635     0.18100
H2347       H  0.69365748  0.69941248  0.91543784     0.18100
N2348       N  0.69533373  0.65192857  0.89231825    -0.88600
H2349       H  0.72199555  0.75091595  0.83155141     0.35500
H2350       H  0.75219080  0.74572937  0.84441377     0.40600
H2351       H  0.68005086  0.64551138  0.88021795     0.40200
H2352       H  0.68723656  0.65492056  0.91095189     0.35100
C2353       C  0.90594727  0.92941114  0.70430376    -0.26700
C2354       C  0.91312368  0.95462495  0.69585022    -0.14700
C2355       C  0.89349858  0.97430324  0.69350648     0.35900
C2356       C  0.86715767  0.96791900  0.69851320    -0.26100
C2357       C  0.86012082  0.94265042  0.70654418    -0.15300
C2358       C  0.87964714  0.92315190  0.70949663     0.37000
N2359       N  0.87255839  0.89678943  0.71679799    -0.89600
H2360       H  0.92074929  0.91420216  0.70590867     0.18100
H2361       H  0.85206403  0.98279358  0.69645714     0.18100
N2362       N  0.90027233  0.00067908  0.68603186    -0.88600
H2363       H  0.88921857  0.88486585  0.71817711     0.35500
H2364       H  0.86108984  0.88901578  0.70164233     0.40600
H2365       H  0.91178102  0.00856939  0.70108852     0.40200
H2366       H  0.88350779  0.01247050  0.68475001     0.35100
C2367       C  0.18208877  0.90769275  0.55875235    -0.26700
C2368       C  0.19229567  0.92534821  0.57747010    -0.14700
C2369       C  0.20500203  0.91530246  0.59993812     0.35900
C2370       C  0.20574737  0.88801132  0.60387028    -0.26100
C2371       C  0.19409916  0.87057453  0.58589780    -0.15300
C2372       C  0.18260486  0.88048753  0.56281274     0.37000
N2373       N  0.17186923  0.86302655  0.54337751    -0.89600
H2374       H  0.17265393  0.91510534  0.54119261     0.18100
H2375       H  0.21499997  0.88032319  0.62142422     0.18100
N2376       N  0.21666422  0.93268059  0.61887794    -0.88600
H2377       H  0.16634625  0.87344166  0.52656436     0.35500
H2378       H  0.15456730  0.85514935  0.55105781     0.40600
H2379       H  0.23237619  0.94213135  0.60967022     0.40200
H2380       H  0.22462734  0.92205082  0.63454043     0.35100
C2381       C  0.08097961  0.98123386  0.59355702    -0.26700
C2382       C  0.10479452  0.98205429  0.60731097    -0.14700
C2383       C  0.10460505  0.97808855  0.63490620     0.35900
C2384       C  0.08055484  0.97454356  0.64807243    -0.26100
C2385       C  0.05675253  0.97516687  0.63437818    -0.15300
C2386       C  0.05710766  0.97810343  0.60671131     0.37000
N2387       N  0.03356189  0.97754030  0.59132935    -0.89600
H2388       H  0.08075940  0.98391665  0.57244530     0.18100
H2389       H  0.08032831  0.97188901  0.66918629     0.18100
N2390       N  0.12874183  0.97775361  0.64952316    -0.88600
H2391       H  0.02180557  0.99354584  0.59649674     0.35500
H2392       H  0.02346833  0.96014334  0.59542587     0.40600
H2393       H  0.13948011  0.96136133  0.64334570     0.40200
H2394       H  0.12509470  0.97514716  0.66956044     0.35100
C2395       C  0.10176614  0.21503344  0.61748199    -0.26700
C2396       C  0.07625719  0.20863884  0.60939446    -0.14700
C2397       C  0.05584228  0.20768425  0.62828494     0.35900
C2398       C  0.06180515  0.21127050  0.65494659    -0.26100
C2399       C  0.08743361  0.21674400  0.66301067    -0.15300
C2400       C  0.10754562  0.21913849  0.64398491     0.37000
N2401       N  0.13426502  0.22428556  0.65108658    -0.89600
H2402       H  0.11759863  0.21575920  0.60328856     0.18100
H2403       H  0.04636641  0.20992053  0.66952611     0.18100
N2404       N  0.02917504  0.20288491  0.62041166    -0.88600
H2405       H  0.14036821  0.21003534  0.66456449     0.35500
H2406       H  0.13532312  0.24277609  0.65992062     0.40600
H2407       H  0.02319862  0.21878855  0.60886601     0.40200
H2408       H  0.01672042  0.20250904  0.63672612     0.35100
C2409       C  0.14948902  0.09575378  0.56386751    -0.26700
C2410       C  0.13698671  0.07132667  0.56230348    -0.14700
C2411       C  0.10947751  0.07039582  0.55837456     0.35900
C2412       C  0.09534103  0.09361207  0.55502976    -0.26100
C2413       C  0.10790658  0.11806196  0.55506941    -0.15300
C2414       C  0.13522721  0.11923466  0.56018028     0.37000
N2415       N  0.14837995  0.14415889  0.56158007    -0.89600
H2416       H  0.17046956  0.09646611  0.56723414     0.18100
H2417       H  0.07439816  0.09238630  0.55152379     0.18100
N2418       N  0.09520114  0.04614182  0.55811939    -0.88600
H2419       H  0.16839913  0.14153544  0.56524017     0.35500
H2420       H  0.14074760  0.15429747  0.57773643     0.40600
H2421       H  0.09904884  0.03611052  0.57560391     0.40200
H2422       H  0.10145287  0.03472803  0.54226381     0.35100
C2423       C  0.93602499  0.81840712  0.37693622    -0.26700
C2424       C  0.94404096  0.83802411  0.35911091    -0.14700
C2425       C  0.95721388  0.86041513  0.36880747     0.35900
C2426       C  0.96057441  0.86329727  0.39606604    -0.26100
C2427       C  0.95104161  0.84436568  0.41375226    -0.15300
C2428       C  0.93928205  0.82145549  0.40400954     0.37000
N2429       N  0.93067783  0.80117697  0.42150563    -0.89600
H2430       H  0.92637333  0.80076938  0.36998733     0.18100
H2431       H  0.96994540  0.88085598  0.40358837     0.18100
N2432       N  0.96641009  0.88047251  0.35122065    -0.88600
H2433       H  0.94047286  0.78381845  0.41651121     0.35500
H2434       H  0.91060312  0.79823231  0.41847953     0.40600
H2435       H  0.98149102  0.87228191  0.33994726     0.40200
H2436       H  0.97477360  0.89602275  0.36170153     0.35100
C2437       C  0.94134110  0.90546647  0.57154630    -0.26700
C2438       C  0.95990307  0.88621025  0.56482080    -0.14700
C2439       C  0.98237383  0.88275350  0.58075313     0.35900
C2440       C  0.98643726  0.89964773  0.60201899    -0.26100
C2441       C  0.96878284  0.92003029  0.60780785    -0.15300
C2442       C  0.94567844  0.92268281  0.59274702     0.37000
N2443       N  0.92669683  0.94263246  0.59901635    -0.89600
H2444       H  0.92429811  0.90827024  0.55911734     0.18100
H2445       H  0.00401589  0.89719795  0.61376204     0.18100
N2446       N  0.00170812  0.86274492  0.57565852    -0.88600
H2447       H  0.91013340  0.94077123  0.58704787     0.35500
H2448       H  0.93501678  0.96080668  0.59438449     0.40600
H2449       H  0.99590519  0.85033218  0.56041608     0.40200
H2450       H  0.00279191  0.85081075  0.59233097     0.35100
C2451       C  0.82327203  0.13010317  0.42394653    -0.26700
C2452       C  0.82733342  0.12109914  0.44963211    -0.14700
C2453       C  0.82612124  0.13928595  0.47072548     0.35900
C2454       C  0.82208832  0.16615559  0.46545197    -0.26100
C2455       C  0.81853197  0.17503539  0.43970324    -0.15300
C2456       C  0.81896570  0.15672017  0.41878376     0.37000
N2457       N  0.81635239  0.16476129  0.39193455    -0.89600
H2458       H  0.82446908  0.11653054  0.40758424     0.18100
H2459       H  0.82136328  0.18016485  0.48146944     0.18100
N2460       N  0.82893052  0.13044032  0.49739007    -0.88600
H2461       H  0.83073996  0.17881675  0.38787905     0.35500
H2462       H  0.79786824  0.17323268  0.38927840     0.40600
H2463       H  0.81301016  0.11817953  0.50153294     0.40200
H2464       H  0.82769691  0.14625572  0.51044796     0.35100
C2465       C  0.89469986  0.92909296  0.46108820    -0.26700
C2466       C  0.91793437  0.92928377  0.47599312    -0.14700
C2467       C  0.92665884  0.95311868  0.48698288     0.35900
C2468       C  0.91202971  0.97617375  0.48283318    -0.26100
C2469       C  0.88867853  0.97616929  0.46797368    -0.15300
C2470       C  0.88020444  0.95217263  0.45671787     0.37000
N2471       N  0.85683659  0.95039471  0.44121274    -0.89600
H2472       H  0.88780579  0.91082433  0.45261183     0.18100
H2473       H  0.91898440  0.99433815  0.49145076     0.18100
N2474       N  0.94993534  0.95373677  0.50294428    -0.88600
H2475       H  0.85902403  0.96224952  0.42460776     0.35500
H2476       H  0.84102650  0.95724230  0.45237290     0.40600
H2477       H  0.94627322  0.94251655  0.51974673     0.40200
H2478       H  0.95377577  0.97284413  0.50942659     0.35100
C2479       C  0.11814381  0.08700682  0.31044679    -0.26700
C2480       C  0.10918926  0.08016637  0.33543748    -0.14700
C2481       C  0.12748414  0.07474390  0.35561180     0.35900
C2482       C  0.15443997  0.07778842  0.35068618    -0.26100
C2483       C  0.16343280  0.08601988  0.32602525    -0.15300
C2484       C  0.14508644  0.08937492  0.30528589     0.37000
N2485       N  0.15379515  0.09537109  0.27909197    -0.89600
H2486       H  0.10404337  0.09032288  0.29485788     0.18100
H2487       H  0.16834315  0.07490224  0.36651927     0.18100
N2488       N  0.11858027  0.06719811  0.38132839    -0.88600
H2489       H  0.13783181  0.09745404  0.26635766     0.35500
H2490       H  0.16458121  0.07923466  0.27234232     0.40600
H2491       H  0.10824731  0.08309503  0.38925805     0.40200
H2492       H  0.13449791  0.06373873  0.39381118     0.35100
C2493       C  0.95324883  0.09257393  0.40041344    -0.26700
C2494       C  0.95867437  0.07507748  0.37975585    -0.14700
C2495       C  0.94170862  0.05355622  0.37537249     0.35900
C2496       C  0.92053254  0.04947519  0.39236544    -0.26100
C2497       C  0.91581212  0.06607402  0.41391446    -0.15300
C2498       C  0.93211396  0.08816554  0.41776243     0.37000
N2499       N  0.92716815  0.10607362  0.43902858    -0.89600
H2500       H  0.96655607  0.10877252  0.40404690     0.18100
H2501       H  0.90799093  0.03261120  0.38901897     0.18100
N2502       N  0.94568648  0.03509349  0.35431377    -0.88600
H2503       H  0.94003113  0.12203364  0.43810843     0.35500
H2504       H  0.93150567  0.09625154  0.45652107     0.40600
H2505       H  0.96119276  0.04068287  0.34216280     0.40200
H2506       H  0.92893649  0.03555727  0.34246183     0.35100
C2507       C  0.06264543  0.15713463  0.44232045    -0.26700
C2508       C  0.05641488  0.14562459  0.46645601    -0.14700
C2509       C  0.04785723  0.11918080  0.46710345     0.35900
C2510       C  0.04450104  0.10529132  0.44349448    -0.26100
C2511       C  0.04948511  0.11714044  0.41915679    -0.15300
C2512       C  0.05905605  0.14340837  0.41874306     0.37000
N2513       N  0.06557775  0.15672868  0.39484068    -0.89600
H2514       H  0.06963985  0.17722742  0.44170121     0.18100
H2515       H  0.03746780  0.08521994  0.44412943     0.18100
N2516       N  0.04287051  0.10640200  0.49179630    -0.88600
H2517       H  0.04854617  0.15942450  0.38375360     0.35500
H2518       H  0.07898601  0.14526608  0.38431629     0.40600
H2519       H  0.06071155  0.10519506  0.50185940     0.40200
H2520       H  0.03653525  0.08708841  0.48885674     0.35100
C2521       C  0.89765738  0.10465274  0.81559155    -0.26700
C2522       C  0.90702021  0.08201322  0.82816910    -0.14700
C2523       C  0.88897874  0.06211671  0.83559514     0.35900
C2524       C  0.86201792  0.06633754  0.83210573    -0.26100
C2525       C  0.85270633  0.08946603  0.82062139    -0.15300
C2526       C  0.87069808  0.10865849  0.81177575     0.37000
N2527       N  0.86154078  0.13264207  0.79995356    -0.89600
H2528       H  0.91131405  0.11981975  0.80963741     0.18100
H2529       H  0.84815723  0.05146406  0.83836087     0.18100
N2530       N  0.89792452  0.03781111  0.84690130    -0.88600
H2531       H  0.87731631  0.14443653  0.79422216     0.35500
H2532       H  0.85132785  0.14317332  0.81433977     0.40600
H2533       H  0.90849071  0.02779635  0.83239923     0.40200
H2534       H  0.88208536  0.02575993  0.85186130     0.35100
C2535       C  0.99916257  0.03712687  0.73384544    -0.26700
C2536       C  0.99929129  0.00953709  0.73444197    -0.14700
C2537       C  0.99930762  0.99676065  0.75912695     0.35900
C2538       C  0.99840255  0.01153924  0.78230856    -0.26100
C2539       C  0.99723121  0.03905505  0.78180658    -0.15300
C2540       C  0.99799678  0.05205272  0.75718157     0.37000
N2541       N  0.99665468  0.08023110  0.75575783    -0.89600
H2542       H  0.99910099  0.04711408  0.71506256     0.18100
H2543       H  0.99791687  0.00120381  0.80090696     0.18100
N2544       N  0.99909929  0.96866762  0.76094018    -0.88600
H2545       H  0.97795038  0.08586748  0.76206541     0.35500
H2546       H  0.99832923  0.08659542  0.73630864     0.40600
H2547       H  0.98218694  0.96301816  0.77110001     0.40200
H2548       H  0.01539319  0.96281039  0.77196281     0.35100
C2549       C  0.17726195  0.14115797  0.96964847    -0.26700
C2550       C  0.18369694  0.12244094  0.95019285    -0.14700
C2551       C  0.19610537  0.13108826  0.92706312     0.35900
C2552       C  0.20131513  0.15790457  0.92361574    -0.26100
C2553       C  0.19402142  0.17665294  0.94259560    -0.15300
C2554       C  0.18206355  0.16814628  0.96602037     0.37000
N2555       N  0.17544786  0.18668410  0.98628228    -0.89600
H2556       H  0.16794013  0.13482708  0.98768007     0.18100
H2557       H  0.21056422  0.16417367  0.90550278     0.18100
N2558       N  0.20297064  0.11292000  0.90670453    -0.88600
H2559       H  0.16848364  0.17694226  0.00295591     0.35500
H2560       H  0.15983425  0.19808991  0.97941254     0.40600
H2561       H  0.22317178  0.11432644  0.90341669     0.40200
H2562       H  0.19332570  0.11864774  0.88950768     0.35100
C2563       C  0.08418990  0.08835642  0.91465609    -0.26700
C2564       C  0.09677792  0.06383237  0.91481134    -0.14700
C2565       C  0.08897881  0.04435379  0.89679475     0.35900
C2566       C  0.06826430  0.04927237  0.87953677    -0.26100
C2567       C  0.05513522  0.07345320  0.87967438    -0.15300
C2568       C  0.06335882  0.09342726  0.89711650     0.37000
N2569       N  0.04995396  0.11828754  0.89766891    -0.89600
H2570       H  0.09058171  0.10346301  0.92821237     0.18100
H2571       H  0.06171562  0.03368335  0.86658863     0.18100
N2572       N  0.10143909  0.01909227  0.89669031    -0.88600
H2573       H  0.05868268  0.13086244  0.91134438     0.35500
H2574       H  0.03082741  0.11492937  0.90428734     0.40600
H2575       H  0.10901149  0.01576820  0.87789600     0.40200
H2576       H  0.08713729  0.00484690  0.90037657     0.35100
C2577       C  0.07239426  0.81575090  0.88100714    -0.26700
C2578       C  0.06965334  0.83652866  0.86295295    -0.14700
C2579       C  0.06188830  0.86156499  0.87217242     0.35900
C2580       C  0.05775068  0.86527416  0.89921824    -0.26100
C2581       C  0.06214480  0.84483714  0.91718884    -0.15300
C2582       C  0.06886532  0.81968467  0.90801127     0.37000
N2583       N  0.07217432  0.79829340  0.92616157    -0.89600
H2584       H  0.07798727  0.79639907  0.87411576     0.18100
H2585       H  0.05243841  0.88458434  0.90647145     0.18100
N2586       N  0.05934345  0.88336939  0.85440627    -0.88600
H2587       H  0.07726069  0.78105119  0.91621499     0.35500
H2588       H  0.05399784  0.79481263  0.93503119     0.40600
H2589       H  0.07811170  0.88785991  0.84744412     0.40200
H2590       H  0.05275236  0.90010080  0.86435142     0.35100
C2591       C  0.11865602  0.92994631  0.96371168    -0.26700
C2592       C  0.09663551  0.92974063  0.98037760    -0.14700
C2593       C  0.08952960  0.95310686  0.99350686     0.35900
C2594       C  0.10409423  0.97597449  0.98945274    -0.26100
C2595       C  0.12583938  0.97655832  0.97236029    -0.15300
C2596       C  0.13330019  0.95310494  0.95946142     0.37000
N2597       N  0.15567631  0.95273235  0.94229411    -0.89600
H2598       H  0.12437861  0.91195169  0.95386656     0.18100
H2599       H  0.09801857  0.99360540  0.99973032     0.18100
N2600       N  0.06814335  0.95410148  0.01176069    -0.88600
H2601       H  0.15814876  0.93408704  0.93402379     0.35500
H2602       H  0.17230526  0.95624237  0.95379146     0.40600
H2603       H  0.07121664  0.93988439  0.02625676     0.40200
H2604       H  0.05074297  0.94987265  0.00180680     0.35100
C2605       C  0.10900760  0.94491893  0.21363845    -0.26700
C2606       C  0.10303650  0.96404217  0.19481070    -0.14700
C2607       C  0.12378559  0.97866969  0.18340728     0.35900
C2608       C  0.14985675  0.97269806  0.18980283    -0.26100
C2609       C  0.15581067  0.95262820  0.20762661    -0.15300
C2610       C  0.13504801  0.93913013  0.22019425     0.37000
N2611       N  0.14018627  0.91870641  0.23885441    -0.89600
H2612       H  0.09342460  0.93378707  0.22288035     0.18100
H2613       H  0.16552608  0.98349448  0.18029967     0.18100
N2614       N  0.11869169  0.99916370  0.16479963    -0.88600
H2615       H  0.13167449  0.90135650  0.23192333     0.35500
H2616       H  0.13098577  0.92373322  0.25651395     0.40600
H2617       H  0.12825252  0.99443174  0.14724769     0.40200
H2618       H  0.12684609  0.01656410  0.17202944     0.35100
C2619       C  0.02241478  0.05549046  0.26049926    -0.26700
C2620       C  0.01846839  0.04084795  0.28366946    -0.14700
C2621       C  0.01216670  0.01406899  0.28149830     0.35900
C2622       C  0.01087588  0.00224802  0.25665639    -0.26100
C2623       C  0.01616920  0.01641147  0.23343715    -0.15300
C2624       C  0.02146859  0.04359388  0.23544727     0.37000
N2625       N  0.02653032  0.05891163  0.21229376    -0.89600
H2626       H  0.02714714  0.07618518  0.26195470     0.18100
H2627       H  0.00654568  0.98143424  0.25577708     0.18100
N2628       N  0.00709787  0.99866799  0.30447478    -0.88600
H2629       H  0.03075333  0.07838468  0.21727770     0.35500
H2630       H  0.00922238  0.05936365  0.20128345     0.40600
H2631       H  0.02045346  0.98306318  0.30479945     0.40200
H2632       H  0.98821659  0.99081533  0.30285245     0.35100
C2633       C  0.02893920  0.90268830  0.10456407    -0.26700
C2634       C  0.04688914  0.92300918  0.10959053    -0.14700
C2635       C  0.07037430  0.92419589  0.09488774     0.35900
C2636       C  0.07450709  0.90627301  0.07437844    -0.26100
C2637       C  0.05540585  0.88747942  0.06798062    -0.15300
C2638       C  0.03287110  0.88503338  0.08376699     0.37000
N2639       N  0.01370979  0.86513308  0.07800432    -0.89600
H2640       H  0.01126895  0.90118767  0.11631665     0.18100
H2641       H  0.09187751  0.90822596  0.06224955     0.18100
N2642       N  0.09031559  0.94322096  0.10039056    -0.88600
H2643       H  0.99817052  0.86601960  0.09138411     0.35500
H2644       H  0.02274467  0.84687071  0.08066841     0.40600
H2645       H  0.09587660  0.94129198  0.12006489     0.40200
H2646       H  0.08248382  0.96198267  0.09758001     0.35100
C2647       C  0.80919316  0.91803342  0.09536740    -0.26700
C2648       C  0.82245111  0.92595600  0.07259443    -0.14700
C2649       C  0.83065580  0.90660970  0.05421652     0.35900
C2650       C  0.82734060  0.87994481  0.06017008    -0.26100
C2651       C  0.81516403  0.87209242  0.08344631    -0.15300
C2652       C  0.80543875  0.89132559  0.10103585     0.37000
N2653       N  0.79271310  0.88374982  0.12508506    -0.89600
H2654       H  0.80260057  0.93266936  0.10934778     0.18100
H2655       H  0.83423841  0.86515640  0.04648533     0.18100
N2656       N  0.84265133  0.91392577  0.02971848    -0.88600
H2657       H  0.78631273  0.90026803  0.13547826     0.35500
H2658       H  0.80674440  0.87449278  0.13689378     0.40600
H2659       H  0.82835028  0.92347191  0.01849695     0.40200
H2660       H  0.84826416  0.89730281  0.01901881     0.35100
C2661       C  0.91076992  0.97423125  0.12974026    -0.26700
C2662       C  0.91190622  0.98432241  0.10399769    -0.14700
C2663       C  0.93643955  0.99107349  0.09333003     0.35900
C2664       C  0.95914852  0.98820065  0.10850647    -0.26100
C2665       C  0.95815041  0.97846822  0.13432960    -0.15300
C2666       C  0.93370944  0.97100952  0.14497114     0.37000
N2667       N  0.93216132  0.96078697  0.17122684    -0.89600
H2668       H  0.89190215  0.96904173  0.13805245     0.18100
H2669       H  0.97780348  0.99374585  0.09992359     0.18100
N2670       N  0.93835557  0.00183253  0.06740928    -0.88600
H2671       H  0.91276248  0.95610092  0.17597988     0.35500
H2672       H  0.93788010  0.97575220  0.18407199     0.40600
H2673       H  0.95079930  0.98976255  0.05639238     0.40200
H2674       H  0.94705238  0.02037775  0.06880031     0.35100
C2675       C  0.95544994  0.19531975  0.15623690    -0.26700
C2676       C  0.93427900  0.21162902  0.16262430    -0.14700
C2677       C  0.91980459  0.22387554  0.14227416     0.35900
C2678       C  0.92643173  0.21881086  0.11605014    -0.26100
C2679       C  0.94704477  0.20174306  0.10958086    -0.15300
C2680       C  0.96228559  0.19047792  0.13001072     0.37000
N2681       N  0.98433251  0.17377539  0.12425497    -0.89600
H2682       H  0.96676753  0.18627494  0.17182354     0.18100
H2683       H  0.91483702  0.22767094  0.10056969     0.18100
N2684       N  0.89786486  0.24069808  0.14814636    -0.88600
H2685       H  0.99244782  0.16614115  0.14150081     0.35500
H2686       H  0.99885864  0.18555574  0.11581123     0.40600
H2687       H  0.88315465  0.22899489  0.15637877     0.40200
H2688       H  0.88997077  0.24871072  0.13096967     0.35100
C2689       C  0.97117361  0.12088204  0.96382817    -0.26700
C2690       C  0.96310749  0.14724708  0.96290737    -0.14700
C2691       C  0.95747913  0.15883317  0.93839131     0.35900
C2692       C  0.96027465  0.14389368  0.91541338    -0.26100
C2693       C  0.96838368  0.11743581  0.91636057    -0.15300
C2694       C  0.97404762  0.10589541  0.94093158     0.37000
N2695       N  0.98344131  0.07928659  0.94260736    -0.89600
H2696       H  0.97547470  0.11190487  0.98264764     0.18100
H2697       H  0.95618376  0.15309603  0.89666694     0.18100
N2698       N  0.94984803  0.18582496  0.93614980    -0.88600
H2699       H  0.98607735  0.07369691  0.96218674     0.35500
H2700       H  0.00201101  0.07871317  0.93387160     0.40600
H2701       H  0.96428680  0.19741965  0.94499340     0.40200
H2702       H  0.93219990  0.18851097  0.94624566     0.35100
C2703       C  0.90553485  0.06848367  0.04798058    -0.26700
C2704       C  0.87984974  0.07121876  0.05760856    -0.14700
C2705       C  0.87034364  0.09634872  0.06416901     0.35900
C2706       C  0.88667193  0.11838720  0.06019286    -0.26100
C2707       C  0.91234690  0.11550714  0.05027817    -0.15300
C2708       C  0.92181843  0.09022579  0.04441237     0.37000
N2709       N  0.94764603  0.08656305  0.03388564    -0.89600
H2710       H  0.91306660  0.04918884  0.04299410     0.18100
H2711       H  0.87934501  0.13785289  0.06474727     0.18100
N2712       N  0.84415912  0.09944704  0.07416375    -0.88600
H2713       H  0.94591350  0.07735839  0.01560641     0.35500
H2714       H  0.95791716  0.07392517  0.04639809     0.40600
H2715       H  0.83115692  0.09362675  0.05939076     0.40200
H2716       H  0.84023194  0.11924924  0.07799281     0.35100
C2717       C  0.71034551  0.88640971  0.93698867    -0.26700
C2718       C  0.69226574  0.86736016  0.94578443    -0.14700
C2719       C  0.67032033  0.87542584  0.96047917     0.35900
C2720       C  0.66637677  0.90216081  0.96528942    -0.26100
C2721       C  0.68378901  0.92118336  0.95548441    -0.15300
C2722       C  0.70631334  0.91325539  0.94167871     0.37000
N2723       N  0.72490239  0.93238774  0.93247442    -0.89600
H2724       H  0.72750948  0.88046723  0.92592656     0.18100
H2725       H  0.64898198  0.90809722  0.97602387     0.18100
N2726       N  0.65166441  0.85673415  0.97010990    -0.88600
H2727       H  0.74035599  0.92323559  0.92251953     0.35500
H2728       H  0.73309864  0.94148702  0.94895823     0.40600
H2729       H  0.63333606  0.86144169  0.96237127     0.40200
H2730       H  0.65063723  0.85868208  0.99060588     0.35100
C2731       C  0.72865397  0.01338153  0.02888797    -0.26700
C2732       C  0.72730174  0.01285897  0.00137085    -0.14700
C2733       C  0.75099121  0.01450142  0.98688226     0.35900
C2734       C  0.77523096  0.01529229  0.00002941    -0.26100
C2735       C  0.77662135  0.01469678  0.02753314    -0.15300
C2736       C  0.75290296  0.01439778  0.04203097     0.37000
N2737       N  0.75322395  0.01398261  0.07015450    -0.89600
H2738       H  0.71079765  0.01229861  0.04039074     0.18100
H2739       H  0.79312150  0.01567299  0.98853036     0.18100
N2740       N  0.75075529  0.01431164  0.95875110    -0.88600
H2741       H  0.74363228  0.99695769  0.07643683     0.35500
H2742       H  0.74255638  0.03018920  0.07691286     0.40600
H2743       H  0.76167745  0.99814394  0.95232621     0.40200
H2744       H  0.76010357  0.03136413  0.95216554     0.35100
C2745       C  0.55359244  0.17552619  0.89457566    -0.26700
C2746       C  0.55822044  0.19595466  0.91252643    -0.14700
C2747       C  0.56641407  0.22065401  0.90318516     0.35900
C2748       C  0.57138735  0.22389250  0.87643133    -0.26100
C2749       C  0.56868836  0.20288281  0.85859573    -0.15300
C2750       C  0.55885952  0.17860167  0.86784743     0.37000
N2751       N  0.55500472  0.15639718  0.85100380    -0.89600
H2752       H  0.54692534  0.15654301  0.90153771     0.18100
H2753       H  0.57819336  0.24290037  0.86970592     0.18100
N2754       N  0.56948254  0.24283829  0.92023999    -0.88600
H2755       H  0.57292100  0.15138397  0.84236092     0.35500
H2756       H  0.54150198  0.16148728  0.83640469     0.40600
H2757       H  0.58436317  0.23881748  0.93378221     0.40200
H2758       H  0.55189653  0.24578083  0.93037879     0.35100
C2759       C  0.58245087  0.08690434  0.98370565    -0.26700
C2760       C  0.59119218  0.11025528  0.97228816    -0.14700
C2761       C  0.61538041  0.11061896  0.95865485     0.35900
C2762       C  0.63066171  0.08758513  0.95735027    -0.26100
C2763       C  0.62236359  0.06446785  0.96976464    -0.15300
C2764       C  0.59779472  0.06414252  0.98274346     0.37000
N2765       N  0.58809777  0.04061238  0.99475997    -0.89600
H2766       H  0.56397509  0.08650913  0.99425730     0.18100
H2767       H  0.64924964  0.08779304  0.94702279     0.18100
N2768       N  0.62428671  0.13434777  0.94622914    -0.88600
H2769       H  0.57010170  0.03592787  0.98609094     0.35500
H2770       H  0.58478463  0.04447631  0.01465754     0.40600
H2771       H  0.61094622  0.13894400  0.93132432     0.40200
H2772       H  0.64244589  0.13133280  0.93713414     0.35100
C2773       C  0.60796464  0.09767078  0.20805223    -0.26700
C2774       C  0.60117940  0.07989088  0.18825663    -0.14700
C2775       C  0.62132251  0.06738387  0.17370071     0.35900
C2776       C  0.64763085  0.07299206  0.17914832    -0.26100
C2777       C  0.65444917  0.09104023  0.19872100    -0.15300
C2778       C  0.63427556  0.10340018  0.21341068     0.37000
N2779       N  0.64022126  0.12235561  0.23334544    -0.89600
H2780       H  0.59277561  0.10745363  0.21931371     0.18100
H2781       H  0.66276362  0.06346701  0.16759864     0.18100
N2782       N  0.61527987  0.04958969  0.15274494    -0.88600
H2783       H  0.63210604  0.11583327  0.25104062     0.35500
H2784       H  0.63113040  0.14007636  0.22831135     0.40600
H2785       H  0.62415373  0.03152792  0.15688057     0.40200
H2786       H  0.62356046  0.05694502  0.13545994     0.35100
C2787       C  0.52025024  0.12991414  0.09731918    -0.26700
C2788       C  0.54026453  0.11217742  0.10402126    -0.14700
C2789       C  0.56397048  0.11223684  0.08945213     0.35900
C2790       C  0.56627638  0.12912074  0.06774826    -0.26100
C2791       C  0.54567239  0.14593576  0.06042020    -0.15300
C2792       C  0.52254110  0.14647708  0.07565444     0.37000
N2793       N  0.50113065  0.16378572  0.06976246    -0.89600
H2794       H  0.50229359  0.13048827  0.10874263     0.18100
H2795       H  0.58400974  0.12846008  0.05600167     0.18100
N2796       N  0.58608234  0.09592970  0.09607775    -0.88600
H2797       H  0.49311879  0.15866160  0.05160333     0.35500
H2798       H  0.50831504  0.18298983  0.06871485     0.40600
H2799       H  0.58281108  0.08513018  0.11313385     0.40200
H2800       H  0.60185399  0.10836106  0.10030129     0.35100
C2801       C  0.36842481  0.94219123  0.81114531    -0.26700
C2802       C  0.35034062  0.95530216  0.82754548    -0.14700
C2803       C  0.35999483  0.97294707  0.84668009     0.35900
C2804       C  0.38706388  0.97606351  0.84966430    -0.26100
C2805       C  0.40504027  0.96173433  0.83427269    -0.15300
C2806       C  0.39551659  0.94518058  0.81438870     0.37000
N2807       N  0.41318980  0.93132661  0.79743679    -0.89600
H2808       H  0.36163399  0.92884302  0.79603085     0.18100
H2809       H  0.39403155  0.98916293  0.86492112     0.18100
N2810       N  0.34305743  0.98785881  0.86349011    -0.88600
H2811       H  0.40913133  0.93685921  0.77808689     0.35500
H2812       H  0.40938583  0.91122355  0.79923056     0.40600
H2813       H  0.33239633  0.97495944  0.87533748     0.40200
H2814       H  0.33016722  0.99880152  0.85183938     0.35100
C2815       C  0.54793540  0.96981089  0.91836127    -0.26700
C2816       C  0.55069083  0.96634152  0.89114201    -0.14700
C2817       C  0.57594189  0.96498029  0.88012012     0.35900
C2818       C  0.59787404  0.96866551  0.89631371    -0.26100
C2819       C  0.59514639  0.97348718  0.92349934    -0.15300
C2820       C  0.56982137  0.97311323  0.93474297     0.37000
N2821       N  0.56619617  0.97736717  0.96242159    -0.89600
H2822       H  0.52841649  0.97050865  0.92682411     0.18100
H2823       H  0.61717791  0.96851917  0.88739077     0.18100
N2824       N  0.57979786  0.96125013  0.85251255    -0.88600
H2825       H  0.57370081  0.96091907  0.97217252     0.35500
H2826       H  0.54623704  0.97816218  0.96710046     0.40600
H2827       H  0.57000779  0.97627817  0.84250763     0.40200
H2828       H  0.57133728  0.94332623  0.84718081     0.35100
C2829       C  0.34259526  0.13435671  0.05828868    -0.26700
C2830       C  0.32646628  0.11677509  0.07228425    -0.14700
C2831       C  0.30732796  0.12676804  0.08950783     0.35900
C2832       C  0.30598914  0.15387243  0.09374155    -0.26100
C2833       C  0.32312284  0.17148190  0.08098558    -0.15300
C2834       C  0.34121886  0.16161824  0.06250360     0.37000
N2835       N  0.35806887  0.17906152  0.04809319    -0.89600
H2836       H  0.35707051  0.12677728  0.04466268     0.18100
H2837       H  0.29158447  0.16116202  0.10759035     0.18100
N2838       N  0.28941786  0.10944896  0.10279086    -0.88600
H2839       H  0.36878678  0.16868846  0.03396905     0.35500
H2840       H  0.37184017  0.18660548  0.06129169     0.40600
H2841       H  0.27757738  0.10068701  0.08849211     0.40200
H2842       H  0.27683959  0.12000036  0.11513368     0.35100
C2843       C  0.24682611  0.02750050  0.98891686    -0.26700
C2844       C  0.22383359  0.03293133  0.00334627    -0.14700
C2845       C  0.22565623  0.03528596  0.03085616     0.35900
C2846       C  0.25031734  0.03371055  0.04311164    -0.26100
C2847       C  0.27341244  0.02988173  0.02842736    -0.15300
C2848       C  0.27148596  0.02585021  0.00111099     0.37000
N2849       N  0.29454633  0.02030474  0.98578854    -0.89600
H2850       H  0.24576725  0.02513363  0.96780571     0.18100
H2851       H  0.25143737  0.03649501  0.06418071     0.18100
N2852       N  0.20267388  0.03959967  0.04645367    -0.88600
H2853       H  0.28976662  0.01811105  0.96593679     0.35500
H2854       H  0.30193241  0.00218868  0.99204824     0.40600
H2855       H  0.20515779  0.05713960  0.05684840     0.40200
H2856       H  0.20126522  0.02429260  0.06006634     0.35100
C2857       C  0.40778710  0.06447567  0.13061010    -0.26700
C2858       C  0.40908043  0.05271179  0.10560846    -0.14700
C2859       C  0.43346547  0.04433015  0.09571238     0.35900
C2860       C  0.45600498  0.04791511  0.11096479    -0.26100
C2861       C  0.45486358  0.05960812  0.13598526    -0.15300
C2862       C  0.43052877  0.06834378  0.14582307     0.37000
N2863       N  0.42879507  0.08025842  0.17135801    -0.89600
H2864       H  0.38896342  0.07084894  0.13820716     0.18100
H2865       H  0.47471943  0.04144646  0.10317055     0.18100
N2866       N  0.43521791  0.03158676  0.07054946    -0.88600
H2867       H  0.40921778  0.08409487  0.17618568     0.35500
H2868       H  0.43804788  0.09853968  0.17029640     0.40600
H2869       H  0.42517262  0.01373203  0.07190885     0.40200
H2870       H  0.45470013  0.02693915  0.06606084     0.35100
C2871       C  0.40906858  0.81694238  0.14785072    -0.26700
C2872       C  0.42910371  0.82349936  0.16564971    -0.14700
C2873       C  0.45309663  0.83320024  0.15597336     0.35900
C2874       C  0.45604380  0.83749097  0.12914052    -0.26100
C2875       C  0.43546517  0.83265135  0.11132574    -0.15300
C2876       C  0.41187710  0.82154738  0.12089147     0.37000
N2877       N  0.39018002  0.81552929  0.10407964    -0.89600
H2878       H  0.39062639  0.80916972  0.15505653     0.18100
H2879       H  0.47461303  0.84527902  0.12230933     0.18100
N2880       N  0.47508467  0.83821832  0.17273121    -0.88600
H2881       H  0.39635790  0.80192071  0.09000452     0.35500
H2882       H  0.38408529  0.83276734  0.09472112     0.40600
H2883       H  0.47932904  0.82096522  0.18304872     0.40200
H2884       H  0.47024608  0.85310081  0.18596815     0.35100
C2885       C  0.46307224  0.93641998  0.94527378    -0.26700
C2886       C  0.46176153  0.92367107  0.92092135    -0.14700
C2887       C  0.45656210  0.89629896  0.92023239     0.35900
C2888       C  0.45343361  0.88237414  0.94395010    -0.26100
C2889       C  0.45598195  0.89506324  0.96822252    -0.15300
C2890       C  0.46063972  0.92252171  0.96874631     0.37000
N2891       N  0.46280081  0.93702317  0.99279313    -0.89600
H2892       H  0.46700350  0.95732299  0.94620539     0.18100
H2893       H  0.44961659  0.86143850  0.94351200     0.18100
N2894       N  0.45460837  0.88268104  0.89557518    -0.88600
H2895       H  0.47940599  0.93066576  0.00297814     0.35500
H2896       H  0.44611516  0.93358608  0.00421650     0.40600
H2897       H  0.43810323  0.88997691  0.88579769     0.40200
H2898       H  0.45128108  0.86263625  0.89858166     0.35100
C2899       C  0.39478826  0.93033177  0.07702749    -0.26700
C2900       C  0.39902735  0.92075615  0.05153062    -0.14700
C2901       C  0.38620903  0.93288919  0.03002778     0.35900
C2902       C  0.37026600  0.95474541  0.03458700    -0.26100
C2903       C  0.36687872  0.96514665  0.05988046    -0.15300
C2904       C  0.37856648  0.95231633  0.08150245     0.37000
N2905       N  0.37511752  0.96239909  0.10764057    -0.89600
H2906       H  0.40432479  0.92071244  0.09344572     0.18100
H2907       H  0.36135440  0.96448854  0.01787737     0.18100
N2908       N  0.38951035  0.92438837  0.00324315    -0.88600
H2909       H  0.38592505  0.95129183  0.12111170     0.35500
H2910       H  0.35537945  0.95989277  0.11263538     0.40600
H2911       H  0.40245668  0.90864135  0.00154960     0.40200
H2912       H  0.39798797  0.93988156  0.99277525     0.35100
C2913       C  0.67834589  0.13456668  0.56214780    -0.26700
C2914       C  0.69119994  0.11608441  0.57829265    -0.14700
C2915       C  0.70880073  0.12533386  0.59766175     0.35900
C2916       C  0.71272104  0.15236014  0.60061550    -0.26100
C2917       C  0.69924657  0.17076778  0.58498801    -0.15300
C2918       C  0.68219407  0.16168711  0.56519777     0.37000
N2919       N  0.66878365  0.17991379  0.54829129    -0.89600
H2920       H  0.66486678  0.12790919  0.54711490     0.18100
H2921       H  0.72593704  0.15899023  0.61590861     0.18100
N2922       N  0.72294738  0.10800527  0.61470996    -0.88600
H2923       H  0.65657376  0.16999341  0.53510915     0.35500
H2924       H  0.68299936  0.18946196  0.53698492     0.40600
H2925       H  0.73396663  0.09500643  0.60325469     0.40200
H2926       H  0.70953611  0.09745397  0.62607893     0.35100
C2927       C  0.74161961  0.02241289  0.50337618    -0.26700
C2928       C  0.74069295  0.02973834  0.52984792    -0.14700
C2929       C  0.76431460  0.03624708  0.54291349     0.35900
C2930       C  0.78810765  0.03641310  0.52881851    -0.26100
C2931       C  0.78892459  0.03027283  0.50191823    -0.15300
C2932       C  0.76540130  0.02210868  0.48937120     0.37000
N2933       N  0.76547679  0.01401241  0.46231317    -0.89600
H2934       H  0.72358520  0.01699333  0.49349447     0.18100
H2935       H  0.80592904  0.04244839  0.53870570     0.18100
N2936       N  0.76396395  0.04385771  0.57011147    -0.88600
H2937       H  0.74649559  0.00951036  0.45596105     0.35500
H2938       H  0.77624842  0.99655194  0.46115723     0.40600
H2939       H  0.75362254  0.06155869  0.57146134     0.40200
H2940       H  0.78296502  0.04770145  0.57682081     0.35100
C2941       C  0.40791952  0.10412366  0.70803149    -0.26700
C2942       C  0.41504011  0.08008181  0.69667950    -0.14700
C2943       C  0.39521665  0.06148037  0.69071763     0.35900
C2944       C  0.36881948  0.06781348  0.69500652    -0.26100
C2945       C  0.36182956  0.09212013  0.70563754    -0.15300
C2946       C  0.38156893  0.11033571  0.71243205     0.37000
N2947       N  0.37488134  0.13571872  0.72264922    -0.89600
H2948       H  0.42274081  0.11866366  0.71263903     0.18100
H2949       H  0.35374636  0.05365265  0.69002669     0.18100
N2950       N  0.40164323  0.03620662  0.68010504    -0.88600
H2951       H  0.38236566  0.14996090  0.70989781     0.35500
H2952       H  0.38414445  0.13794183  0.74083259     0.40600
H2953       H  0.39212717  0.03422907  0.66202241     0.40200
H2954       H  0.39427224  0.02185554  0.69279712     0.35100
C2955       C  0.49752322  0.04533763  0.76293279    -0.26700
C2956       C  0.50164572  0.03056685  0.73994009    -0.14700
C2957       C  0.50525492  0.00324376  0.74218570     0.35900
C2958       C  0.50359681  0.99112490  0.76696616    -0.26100
C2959       C  0.49808117  0.00568149  0.78990225    -0.15300
C2960       C  0.49560331  0.03330807  0.78778098     0.37000
N2961       N  0.49037424  0.04908394  0.81061698    -0.89600
H2962       H  0.49470229  0.06638425  0.76142899     0.18100
H2963       H  0.50587843  0.96998877  0.76803502     0.18100
N2964       N  0.51052439  0.98765764  0.71936546    -0.88600
H2965       H  0.48801213  0.06883276  0.80547894     0.35500
H2966       H  0.50696914  0.04816521  0.82264906     0.40600
H2967       H  0.49585226  0.97339949  0.71783023     0.40200
H2968       H  0.52842609  0.97801444  0.72220968     0.35100
C2969       C  0.60525259  0.07042069  0.62834076    -0.26700
C2970       C  0.60446427  0.05461644  0.60571566    -0.14700
C2971       C  0.58085960  0.04204492  0.59881479     0.35900
C2972       C  0.55872394  0.04533854  0.61452542    -0.26100
C2973       C  0.55932143  0.06096422  0.63733984    -0.15300
C2974       C  0.58282818  0.07390887  0.64418638     0.37000
N2975       N  0.58401910  0.09014444  0.66724025    -0.89600
H2976       H  0.62350790  0.07989258  0.63374444     0.18100
H2977       H  0.54083423  0.03539648  0.60874423     0.18100
N2978       N  0.57914680  0.02462586  0.57681772    -0.88600
H2979       H  0.60265927  0.09849175  0.66920774     0.35500
H2980       H  0.58132474  0.07795392  0.68353098     0.40600
H2981       H  0.59294105  0.00966960  0.57954514     0.40200
H2982       H  0.58377272  0.03501537  0.55976294     0.35100
C2983       C  0.31171372  0.91696046  0.43164892    -0.26700
C2984       C  0.32975992  0.92309280  0.45145032    -0.14700
C2985       C  0.34144530  0.90231391  0.46586007     0.35900
C2986       C  0.33462270  0.87617894  0.46042730    -0.26100
C2987       C  0.31648033  0.87007687  0.44069785    -0.15300
C2988       C  0.30510302  0.89083061  0.42604119     0.37000
N2989       N  0.28738136  0.88557617  0.40484415    -0.89600
H2990       H  0.30285444  0.93250740  0.42011913     0.18100
H2991       H  0.34383174  0.86057661  0.47160431     0.18100
N2992       N  0.36078966  0.90745489  0.48561672    -0.88600
H2993       H  0.29533764  0.89353916  0.38767405     0.35500
H2994       H  0.26969567  0.89524863  0.40874385     0.40600
H2995       H  0.37808144  0.89771391  0.48034179     0.40200
H2996       H  0.35415785  0.89949530  0.50333921     0.35100
C2997       C  0.28779837  0.00672847  0.53140071    -0.26700
C2998       C  0.28899119  0.01406927  0.50483702    -0.14700
C2999       C  0.26579748  0.02358397  0.49259988     0.35900
C3000       C  0.24182417  0.02311768  0.50635587    -0.26100
C3001       C  0.24044966  0.01444022  0.53241066    -0.15300
C3002       C  0.26388217  0.00682210  0.54531782     0.37000
N3003       N  0.26320861  0.99800167  0.57214151    -0.89600
H3004       H  0.30539221  0.99975399  0.54109887     0.18100
H3005       H  0.22400915  0.02944516  0.49660203     0.18100
N3006       N  0.26643543  0.03331135  0.46609963    -0.88600
H3007       H  0.28210262  0.99358250  0.57882811     0.35500
H3008       H  0.25263063  0.98041625  0.57263805     0.40600
H3009       H  0.27785457  0.05036969  0.46610640     0.40200
H3010       H  0.24768930  0.03892805  0.45990987     0.35100
C3011       C  0.42650390  0.21861055  0.38006187    -0.26700
C3012       C  0.44221695  0.20517479  0.36164556    -0.14700
C3013       C  0.46310574  0.18942924  0.37092544     0.35900
C3014       C  0.46728301  0.18700818  0.39794875    -0.26100
C3015       C  0.45094406  0.19962975  0.41639046    -0.15300
C3016       C  0.43060163  0.21605426  0.40723870     0.37000
N3017       N  0.41400822  0.22989656  0.42542287    -0.89600
H3018       H  0.41053635  0.23092025  0.37326884     0.18100
H3019       H  0.48314814  0.17443306  0.40451187     0.18100
N3020       N  0.48053952  0.17574409  0.35358555    -0.88600
H3021       H  0.39960491  0.24060958  0.41544444     0.35500
H3022       H  0.42568317  0.24362609  0.43523666     0.40600
H3023       H  0.48893515  0.18929020  0.34065676     0.40200
H3024       H  0.46983327  0.16185431  0.34294321     0.35100
C3025       C  0.47703399  0.11897573  0.56033956    -0.26700
C3026       C  0.46725086  0.14470582  0.56267911    -0.14700
C3027       C  0.45921189  0.15389924  0.58750726     0.35900
C3028       C  0.46204822  0.13735966  0.60961286    -0.26100
C3029       C  0.47218918  0.11167413  0.60719005    -0.15300
C3030       C  0.47935937  0.10241784  0.58205442     0.37000
N3031       N  0.49006690  0.07668937  0.57801720    -0.89600
H3032       H  0.48290375  0.11152317  0.54126788     0.18100
H3033       H  0.45657068  0.14461122  0.62886072     0.18100
N3034       N  0.44886728  0.18002168  0.59029084    -0.88600
H3035       H  0.47605766  0.06277130  0.58351570     0.35500
H3036       H  0.50672336  0.07452588  0.58981779     0.40600
H3037       H  0.46384598  0.19318840  0.58548249     0.40200
H3038       H  0.44385703  0.18371107  0.60986384     0.35100
C3039       C  0.39535924  0.11465544  0.46643660    -0.26700
C3040       C  0.42164850  0.11243173  0.47470835    -0.14700
C3041       C  0.43238126  0.08727391  0.47910200     0.35900
C3042       C  0.41624337  0.06511925  0.47634154    -0.26100
C3043       C  0.38981338  0.06737586  0.46865911    -0.15300
C3044       C  0.37949685  0.09246400  0.46306299     0.37000
N3045       N  0.35283980  0.09612990  0.45495476    -0.89600
H3046       H  0.38693288  0.13388119  0.46283971     0.18100
H3047       H  0.42442602  0.04583196  0.48017249     0.18100
N3048       N  0.45916817  0.08428097  0.48746882    -0.88600
H3049       H  0.34052802  0.08772428  0.46905577     0.35500
H3050       H  0.35006369  0.08642536  0.43708640     0.40600
H3051       H  0.47114967  0.08947408  0.47164187     0.40200
H3052       H  0.46335207  0.06458296  0.49153719     0.35100
C3053       C  0.61545312  0.93001640  0.32455423    -0.26700
C3054       C  0.60576549  0.95543622  0.32877782    -0.14700
C3055       C  0.62351490  0.97684819  0.32974363     0.35900
C3056       C  0.65060932  0.97205695  0.32810517    -0.26100
C3057       C  0.66018887  0.94654540  0.32462180    -0.15300
C3058       C  0.64236080  0.92535745  0.32244488     0.37000
N3059       N  0.65104043  0.89873075  0.31942647    -0.89600
H3060       H  0.60213211  0.91344089  0.32399607     0.18100
H3061       H  0.66430485  0.98830107  0.32918186     0.18100
N3062       N  0.61401327  0.00332637  0.33246393    -0.88600
H3063       H  0.66400169  0.89426756  0.33470522     0.35500
H3064       H  0.66089287  0.89689862  0.30153211     0.40600
H3065       H  0.60317824  0.00775215  0.31559848     0.40200
H3066       H  0.62961969  0.01664025  0.33304153     0.35100
C3067       C  0.51095672  0.00156556  0.23621006    -0.26700
C3068       C  0.51486574  0.02880930  0.23553282    -0.14700
C3069       C  0.51768261  0.04257319  0.25949798     0.35900
C3070       C  0.51754726  0.02888804  0.28333807    -0.26100
C3071       C  0.51471421  0.00150355  0.28411686    -0.15300
C3072       C  0.51042507  0.98776772  0.26020631     0.37000
N3073       N  0.50624930  0.95983890  0.26015100    -0.89600
H3074       H  0.50844386  0.99096517  0.21792825     0.18100
H3075       H  0.52061741  0.03983051  0.30133457     0.18100
N3076       N  0.52197402  0.07039343  0.25979680    -0.88600
H3077       H  0.50457695  0.95275346  0.24094615     0.35500
H3078       H  0.48814759  0.95636486  0.26916267     0.40600
H3079       H  0.53992958  0.07402544  0.26904163     0.40200
H3080       H  0.50715061  0.07907228  0.27105078     0.35100
C3081       C  0.44883953  0.99662200  0.38594906    -0.26700
C3082       C  0.45899323  0.97112070  0.38315754    -0.14700
C3083       C  0.44701839  0.95010141  0.39671449     0.35900
C3084       C  0.42584618  0.95532372  0.41375271    -0.26100
C3085       C  0.41625312  0.98095201  0.41686434    -0.15300
C3086       C  0.42752867  0.00173822  0.40255170     0.37000
N3087       N  0.41766200  0.02807687  0.40547455    -0.89600
H3088       H  0.45812411  0.01278939  0.37568752     0.18100
H3089       H  0.41667947  0.93940436  0.42448216     0.18100
N3090       N  0.45714112  0.92386667  0.39415907    -0.88600
H3091       H  0.42806568  0.04109229  0.39349161     0.35500
H3092       H  0.42113494  0.03391141  0.42485147     0.40600
H3093       H  0.45359501  0.91774823  0.37488714     0.40200
H3094       H  0.44679372  0.91095751  0.40630594     0.35100
C3095       C  0.59325105  0.81914713  0.64700709    -0.26700
C3096       C  0.57836906  0.83388609  0.66510163    -0.14700
C3097       C  0.55915842  0.85143072  0.65557970     0.35900
C3098       C  0.55592794  0.85442509  0.62835798    -0.26100
C3099       C  0.57138739  0.84030056  0.61025762    -0.15300
C3100       C  0.59001043  0.82224421  0.61982668     0.37000
N3101       N  0.60579545  0.80707982  0.60214578    -0.89600
H3102       H  0.60801072  0.80546464  0.65392854     0.18100
H3103       H  0.54144131  0.86831563  0.62130098     0.18100
N3104       N  0.54303378  0.86621809  0.67344674    -0.88600
H3105       H  0.60251612  0.78718894  0.60606123     0.35500
H3106       H  0.62551056  0.81114280  0.60610005     0.40600
H3107       H  0.53121806  0.85284123  0.68358369     0.40200
H3108       H  0.53030634  0.87865659  0.66320534     0.35100
C3109       C  0.56148269  0.91917985  0.46319164    -0.26700
C3110       C  0.55911972  0.89175082  0.46232097    -0.14700
C3111       C  0.55349939  0.87931183  0.43837143     0.35900
C3112       C  0.54919986  0.89480893  0.41585436    -0.26100
C3113       C  0.55056360  0.92252089  0.41685495    -0.15300
C3114       C  0.55753466  0.93463448  0.44076485     0.37000
N3115       N  0.56012336  0.96259102  0.44264248    -0.89600
H3116       H  0.56592365  0.92873444  0.48165356     0.18100
H3117       H  0.54416719  0.88514092  0.39758928     0.18100
N3118       N  0.55085153  0.85123237  0.43731174    -0.88600
H3119       H  0.57913322  0.96680039  0.44911395     0.35500
H3120       H  0.54695097  0.96934050  0.45687523     0.40600
H3121       H  0.56921104  0.84309284  0.44153476     0.40200
H3122       H  0.54602225  0.84518639  0.41829091     0.35100
C3123       C  0.63366057  0.92164527  0.55877866    -0.26700
C3124       C  0.60790219  0.92413829  0.54896524    -0.14700
C3125       C  0.59828886  0.94925253  0.54269785     0.35900
C3126       C  0.61446112  0.97113817  0.54573200    -0.26100
C3127       C  0.63988748  0.96899817  0.55615675    -0.15300
C3128       C  0.64962255  0.94397165  0.56298633     0.37000
N3129       N  0.67580609  0.94116613  0.57305735    -0.89600
H3130       H  0.64119294  0.90229549  0.56347369     0.18100
H3131       H  0.60682403  0.99016097  0.53999671     0.18100
N3132       N  0.57227525  0.95268352  0.53258771    -0.88600
H3133       H  0.68029738  0.92131866  0.57590022     0.35500
H3134       H  0.67626980  0.94990527  0.59162217     0.40600
H3135       H  0.57365856  0.96211142  0.51439640     0.40200
H3136       H  0.56210320  0.96516489  0.54533624     0.35100
C3137       C  0.30769861  0.41557856  0.58524765    -0.26700
C3138       C  0.33081096  0.42352613  0.57271139    -0.14700
C3139       C  0.34849973  0.40416449  0.56329004     0.35900
C3140       C  0.34310129  0.37763334  0.56743822    -0.26100
C3141       C  0.32044426  0.36966760  0.58084342    -0.15300
C3142       C  0.30225704  0.38894946  0.58928071     0.37000
N3143       N  0.27849347  0.38178445  0.60249328    -0.89600
H3144       H  0.29382183  0.43014081  0.59225094     0.18100
H3145       H  0.35729263  0.36319787  0.56083753     0.18100
N3146       N  0.37270735  0.41067652  0.55055586    -0.88600
H3147       H  0.26268727  0.38927561  0.59174863     0.35500
H3148       H  0.27844028  0.39075424  0.62097265     0.40600
H3149       H  0.38360599  0.42293655  0.56289531     0.40200
H3150       H  0.36860017  0.42042533  0.53297912     0.35100
C3151       C  0.62721464  0.47908517  0.68005283    -0.26700
C3152       C  0.60763285  0.46432928  0.69286264    -0.14700
C3153       C  0.61514870  0.44476785  0.71097903     0.35900
C3154       C  0.64185019  0.43933243  0.71457044    -0.26100
C3155       C  0.66138256  0.45318113  0.70080605    -0.15300
C3156       C  0.65394269  0.47369188  0.68389336     0.37000
N3157       N  0.67334184  0.48911470  0.67064073    -0.89600
H3158       H  0.62182901  0.49448795  0.66639128     0.18100
H3159       H  0.64735478  0.42372183  0.72794134     0.18100
N3160       N  0.59576187  0.43028839  0.72550821    -0.88600
H3161       H  0.67066427  0.50875586  0.67604475     0.35500
H3162       H  0.67003796  0.48758043  0.65043552     0.40600
H3163       H  0.58629784  0.44354015  0.73803838     0.40200
H3164       H  0.60462758  0.41620671  0.73754417     0.35100
C3165       C  0.46200024  0.49272477  0.61209123    -0.26700
C3166       C  0.46138344  0.48268244  0.63777192    -0.14700
C3167       C  0.43721249  0.47478484  0.64853250     0.35900
C3168       C  0.41406966  0.47766524  0.63365917    -0.26100
C3169       C  0.41478142  0.48777697  0.60790279    -0.15300
C3170       C  0.43911606  0.49519878  0.59711408     0.37000
N3171       N  0.44068183  0.50599803  0.57118671    -0.89600
H3172       H  0.48050547  0.49859574  0.60339425     0.18100
H3173       H  0.39550184  0.47191328  0.64227437     0.18100
N3174       N  0.43598025  0.46449988  0.67466862    -0.88600
H3175       H  0.45336010  0.49422190  0.56011618     0.35500
H3176       H  0.44891454  0.52475663  0.57253780     0.40600
H3177       H  0.42766123  0.44575774  0.67374055     0.40200
H3178       H  0.42343281  0.47649230  0.68565554     0.35100
C3179       C  0.55569365  0.35196477  0.39556860    -0.26700
C3180       C  0.57279305  0.34228232  0.41506888    -0.14700
C3181       C  0.59481597  0.32740033  0.40743520     0.35900
C3182       C  0.59927810  0.32249644  0.38078303    -0.26100
C3183       C  0.58239293  0.33245278  0.36133682    -0.15300
C3184       C  0.56028212  0.34726999  0.36880285     0.37000
N3185       N  0.54257679  0.35744458  0.34930729    -0.89600
H3186       H  0.53876453  0.36358528  0.40112958     0.18100
H3187       H  0.61653411  0.31130485  0.37528274     0.18100
N3188       N  0.61294855  0.31748801  0.42651585    -0.88600
H3189       H  0.52752640  0.36829054  0.35811251     0.35500
H3190       H  0.53365534  0.34140591  0.34010000     0.40600
H3191       H  0.63151964  0.32508833  0.42223583     0.40200
H3192       H  0.61383141  0.29706173  0.42454014     0.35100
C3193       C  0.49482712  0.29673424  0.50562623    -0.26700
C3194       C  0.52217411  0.29820753  0.50302010    -0.14700
C3195       C  0.53676728  0.27453405  0.50201262     0.35900
C3196       C  0.52388965  0.25022189  0.50300983    -0.26100
C3197       C  0.49649992  0.24859563  0.50499116    -0.15300
C3198       C  0.48182095  0.27229514  0.50694382     0.37000
N3199       N  0.45372746  0.27165908  0.50942906    -0.89600
H3200       H  0.48350728  0.31474290  0.50650135     0.18100
H3201       H  0.53551639  0.23244928  0.50146661     0.18100
N3202       N  0.56470142  0.27491958  0.49880330    -0.88600
H3203       H  0.44593925  0.29066977  0.50912926     0.35500
H3204       H  0.44940387  0.26399965  0.52797824     0.40600
H3205       H  0.56935377  0.26484316  0.48151641     0.40200
H3206       H  0.57310682  0.26477160  0.51455021     0.35100
C3207       C  0.56122467  0.39242606  0.58247350    -0.26700
C3208       C  0.55199635  0.40254103  0.55859467    -0.14700
C3209       C  0.54199134  0.42851889  0.55778708     0.35900
C3210       C  0.54020124  0.44318954  0.58105550    -0.26100
C3211       C  0.54821715  0.43263064  0.60512383    -0.15300
C3212       C  0.55925064  0.40705735  0.60572316     0.37000
N3213       N  0.56918028  0.39567372  0.62945673    -0.89600
H3214       H  0.56958913  0.37285469  0.58316803     0.18100
H3215       H  0.53197690  0.46283161  0.58047924     0.18100
N3216       N  0.53405423  0.44011695  0.53327624    -0.88600
H3217       H  0.55371027  0.39320341  0.64266912     0.35500
H3218       H  0.58292533  0.40854931  0.63761322     0.40600
H3219       H  0.55082611  0.44196461  0.52159164     0.40200
H3220       H  0.52684992  0.45914293  0.53618713     0.35100
C3221       C  0.67069959  0.64027427  0.46505790    -0.26700
C3222       C  0.68728491  0.62188175  0.45287037    -0.14700
C3223       C  0.70971880  0.63069854  0.43941489     0.35900
C3224       C  0.71384107  0.65782331  0.43660700    -0.26100
C3225       C  0.69614411  0.67635308  0.44719010    -0.15300
C3226       C  0.67476282  0.66720602  0.46238094     0.37000
N3227       N  0.65650871  0.68450432  0.47501505    -0.89600
H3228       H  0.65368150  0.63374358  0.47602069     0.18100
H3229       H  0.73070937  0.66443072  0.42549335     0.18100
N3230       N  0.72814905  0.61219745  0.42864393    -0.88600
H3231       H  0.64647738  0.69530052  0.46075680     0.35500
H3232       H  0.66685204  0.69718647  0.48742095     0.40600
H3233       H  0.73649758  0.60192881  0.44435892     0.40200
H3234       H  0.74353148  0.62196700  0.41922981     0.35100
C3235       C  0.63709432  0.46070943  0.48470156    -0.26700
C3236       C  0.63451126  0.47420720  0.46094293    -0.14700
C3237       C  0.61593412  0.46570709  0.44222183     0.35900
C3238       C  0.60003992  0.44377333  0.44797338    -0.26100
C3239       C  0.60259933  0.43043926  0.47198232    -0.15300
C3240       C  0.62158390  0.43898765  0.49037555     0.37000
N3241       N  0.62474873  0.42683139  0.51557526    -0.89600
H3242       H  0.65081776  0.46766902  0.49941499     0.18100
H3243       H  0.58564998  0.43710578  0.43380034     0.18100
N3244       N  0.61264057  0.47987649  0.41802291    -0.88600
H3245       H  0.63160311  0.40765724  0.51302290     0.35500
H3246       H  0.60655721  0.42639552  0.52506305     0.40600
H3247       H  0.60561795  0.49862808  0.42264085     0.40200
H3248       H  0.59826656  0.47096396  0.40639929     0.35100
C3249       C  0.38863775  0.57888406  0.35334122    -0.26700
C3250       C  0.40577433  0.58546349  0.33282424    -0.14700
C3251       C  0.39542997  0.59479122  0.30894112     0.35900
C3252       C  0.36820996  0.59764397  0.30625450    -0.26100
C3253       C  0.35092681  0.59139551  0.32700425    -0.15300
C3254       C  0.36141853  0.58162775  0.35077851     0.37000
N3255       N  0.34463732  0.57500322  0.37248991    -0.89600
H3256       H  0.39662266  0.57172355  0.37173362     0.18100
H3257       H  0.36058065  0.60497983  0.28779782     0.18100
N3258       N  0.41193128  0.60081966  0.28698469    -0.88600
H3259       H  0.35570148  0.56985623  0.38899693     0.35500
H3260       H  0.33416348  0.55816376  0.36718871     0.40600
H3261       H  0.42303177  0.58413985  0.28242843     0.40200
H3262       H  0.42470440  0.61593235  0.29237183     0.35100
C3263       C  0.57529865  0.56287193  0.42751597    -0.26700
C3264       C  0.59953601  0.56407220  0.41456476    -0.14700
C3265       C  0.59995775  0.56924226  0.38716288     0.35900
C3266       C  0.57609761  0.57233683  0.37342763    -0.26100
C3267       C  0.55199490  0.57004197  0.38641965    -0.15300
C3268       C  0.55173979  0.56557670  0.41385982     0.37000
N3269       N  0.52780675  0.56420115  0.42858755    -0.89600
H3270       H  0.57450986  0.55909286  0.44844484     0.18100
H3271       H  0.57628074  0.57593592  0.35245621     0.18100
N3272       N  0.62446177  0.57121817  0.37332786    -0.88600
H3273       H  0.51692037  0.54803749  0.42224098     0.35500
H3274       H  0.51705240  0.58137569  0.42523037     0.40600
H3275       H  0.63421871  0.58781038  0.38046052     0.40200
H3276       H  0.62125351  0.57448871  0.35331198     0.35100
C3277       C  0.45160478  0.70324009  0.65669877    -0.26700
C3278       C  0.43037883  0.71960122  0.66288667    -0.14700
C3279       C  0.41489123  0.73015455  0.64231097     0.35900
C3280       C  0.42070668  0.72357470  0.61619094    -0.26100
C3281       C  0.44134073  0.70642224  0.61003300    -0.15300
C3282       C  0.45728714  0.69661660  0.63060300     0.37000
N3283       N  0.47897848  0.67948303  0.62530674    -0.89600
H3284       H  0.46371274  0.69519323  0.67224417     0.18100
H3285       H  0.40845710  0.73129230  0.60060747     0.18100
N3286       N  0.39268697  0.74670771  0.64791779    -0.88600
H3287       H  0.47589902  0.66186543  0.63539932     0.35500
H3288       H  0.49597399  0.68820303  0.63279430     0.40600
H3289       H  0.37862059  0.73514097  0.65737607     0.40200
H3290       H  0.38397095  0.75338482  0.63056658     0.35100
C3291       C  0.47988046  0.76959848  0.52364966    -0.26700
C3292       C  0.49349279  0.74554365  0.52228232    -0.14700
C3293       C  0.52106960  0.74600255  0.51982598     0.35900
C3294       C  0.53432828  0.77033214  0.51966799    -0.26100
C3295       C  0.52075707  0.79439249  0.52203457    -0.15300
C3296       C  0.49305905  0.79387678  0.52358307     0.37000
N3297       N  0.47830611  0.81789088  0.52559422    -0.89600
H3298       H  0.45870848  0.76953415  0.52555220     0.18100
H3299       H  0.55554075  0.77039273  0.51837477     0.18100
N3300       N  0.53558737  0.72186311  0.51779231    -0.88600
H3301       H  0.45824999  0.81401176  0.52748476     0.35500
H3302       H  0.48061334  0.82804043  0.50789983     0.40600
H3303       H  0.55571452  0.72560438  0.51652220     0.40200
H3304       H  0.53020062  0.71286722  0.50013567     0.35100
C3305       C  0.45792561  0.64319215  0.41753830    -0.26700
C3306       C  0.46172625  0.61575895  0.41907932    -0.14700
C3307       C  0.46060766  0.60345924  0.44392860     0.35900
C3308       C  0.45777032  0.61898023  0.46654962    -0.26100
C3309       C  0.45504894  0.64637798  0.46501316    -0.15300
C3310       C  0.45435811  0.65859781  0.44026973     0.37000
N3311       N  0.45091920  0.68656098  0.43835304    -0.89600
H3312       H  0.45824487  0.65276441  0.39854331     0.18100
H3313       H  0.45768752  0.60960541  0.48566394    -0.01100
N3314       N  0.46320193  0.57543306  0.44633373    -0.88600
H3315       H  0.45082511  0.69245534  0.41868800     0.35500
H3316       H  0.46721981  0.69545751  0.44708223     0.40600
H3317       H  0.44629904  0.56701591  0.43830208     0.40200
H3318       H  0.46353265  0.56983171  0.46607827     0.35100
C3319       C  0.36887202  0.58889809  0.53998985    -0.26700
C3320       C  0.37228589  0.57471923  0.56328861    -0.14700
C3321       C  0.39059627  0.58346403  0.58212355     0.35900
C3322       C  0.40612587  0.60564957  0.57657822    -0.26100
C3323       C  0.40314140  0.61945166  0.55290295    -0.15300
C3324       C  0.38378714  0.61124746  0.53472745     0.37000
N3325       N  0.37985841  0.62424941  0.51007699    -0.89600
H3326       H  0.35517501  0.58191598  0.52526828     0.18100
H3327       H  0.42077439  0.61204334  0.59061186     0.18100
N3328       N  0.39456251  0.56879881  0.60591691    -0.88600
H3329       H  0.39770953  0.62488623  0.50002241     0.35500
H3330       H  0.37338685  0.64342955  0.51363056     0.40600
H3331       H  0.37735806  0.57027488  0.61700870     0.40200
H3332       H  0.40946027  0.57727479  0.61719220     0.35100
C3333       C  0.70639789  0.41431695  0.08513732    -0.26700
C3334       C  0.68241403  0.42291159  0.07485134    -0.14700
C3335       C  0.66347223  0.40424671  0.06701092     0.35900
C3336       C  0.66901291  0.37736698  0.06951664    -0.26100
C3337       C  0.69288633  0.36858012  0.08010784    -0.15300
C3338       C  0.71204242  0.38738282  0.08758633     0.37000
N3339       N  0.73706626  0.37923756  0.09780163    -0.89600
H3340       H  0.72096098  0.42870277  0.09091446     0.18100
H3341       H  0.65415800  0.36322795  0.06391720     0.18100
N3342       N  0.63830753  0.41263708  0.05732085    -0.88600
H3343       H  0.74839233  0.39550547  0.10313508     0.35500
H3344       H  0.74716709  0.36986332  0.08257022     0.40600
H3345       H  0.62863021  0.42224423  0.07269351     0.40200
H3346       H  0.62670325  0.39647776  0.05228227     0.35100
C3347       C  0.58099962  0.73005800  0.14932636    -0.26700
C3348       C  0.57745711  0.70941946  0.16749557    -0.14700
C3349       C  0.57023926  0.68430683  0.15796480     0.35900
C3350       C  0.56702332  0.68047097  0.13105634    -0.26100
C3351       C  0.57135372  0.70082311  0.11303188    -0.15300
C3352       C  0.57802897  0.72599789  0.12217241     0.37000
N3353       N  0.58142524  0.74731219  0.10396982    -0.89600
H3354       H  0.58639368  0.74943277  0.15627213     0.18100
H3355       H  0.56165305  0.66108557  0.12409547     0.18100
N3356       N  0.56681562  0.66203499  0.17479874    -0.88600
H3357       H  0.58630499  0.76459357  0.11393436     0.35500
H3358       H  0.56332109  0.75072374  0.09491349     0.40600
H3359       H  0.55172850  0.66604303  0.18810788     0.40200
H3360       H  0.58430356  0.65857873  0.18494947     0.35100
C3361       C  0.47917353  0.77170773  0.02067582    -0.26700
C3362       C  0.49218821  0.79567553  0.02528241    -0.14700
C3363       C  0.51967912  0.79533678  0.02895477     0.35900
C3364       C  0.53308842  0.77111158  0.02935158    -0.26100
C3365       C  0.51978606  0.74707927  0.02619010    -0.15300
C3366       C  0.49248525  0.74763594  0.02123997     0.37000
N3367       N  0.47766147  0.72421242  0.01651108    -0.89600
H3368       H  0.45815791  0.77145243  0.01746435     0.18100
H3369       H  0.55405266  0.77100391  0.03288838     0.18100
N3370       N  0.53389935  0.81942994  0.03266268    -0.88600
H3371       H  0.47794736  0.71259575  0.03340712     0.35500
H3372       H  0.48637050  0.71390942  0.00101973     0.40600
H3373       H  0.53256298  0.83012427  0.01518542     0.40200
H3374       H  0.55384647  0.81567141  0.03568340     0.35100
C3375       C  0.62081080  0.58032380  0.07933868    -0.26700
C3376       C  0.64101187  0.57418013  0.06161759    -0.14700
C3377       C  0.64553161  0.59090780  0.03988761     0.35900
C3378       C  0.62900261  0.61260927  0.03585717    -0.26100
C3379       C  0.60780704  0.61788464  0.05270407    -0.15300
C3380       C  0.60410006  0.60178819  0.07502587     0.37000
N3381       N  0.58375200  0.60686698  0.09375488    -0.89600
H3382       H  0.61703668  0.56746602  0.09588503     0.18100
H3383       H  0.63237863  0.62510497  0.01895773     0.18100
N3384       N  0.66636070  0.58630497  0.02136009    -0.88600
H3385       H  0.56560275  0.60529473  0.08436237     0.35500
H3386       H  0.58598563  0.62605353  0.10072019     0.40600
H3387       H  0.67800960  0.57036488  0.02689926     0.40200
H3388       H  0.67870404  0.60269347  0.02180858     0.35100
C3389       C  0.40092922  0.43338596  0.20235458    -0.26700
C3390       C  0.40795430  0.45919322  0.19598299    -0.14700
C3391       C  0.38838604  0.47901641  0.19546466     0.35900
C3392       C  0.36208930  0.47222774  0.20015094    -0.26100
C3393       C  0.35517896  0.44632949  0.20606067    -0.15300
C3394       C  0.37488900  0.42674484  0.20733226     0.37000
N3395       N  0.36892691  0.39966983  0.21226677    -0.89600
H3396       H  0.41562063  0.41797195  0.20251009     0.18100
H3397       H  0.34696872  0.48720365  0.19947454     0.18100
N3398       N  0.39521682  0.50589777  0.19015403    -0.88600
H3399       H  0.35496511  0.39338938  0.19859625     0.35500
H3400       H  0.36121020  0.39785130  0.23117665     0.40600
H3401       H  0.40709395  0.51239865  0.20558659     0.40200
H3402       H  0.37850734  0.51783348  0.19023031     0.35100
C3403       C  0.48922360  0.55385929  0.26160317    -0.26700
C3404       C  0.49585404  0.53970433  0.28435825    -0.14700
C3405       C  0.50385700  0.51338450  0.28187956     0.35900
C3406       C  0.50365436  0.50127817  0.25708247    -0.26100
C3407       C  0.49542787  0.51491127  0.23440336    -0.15300
C3408       C  0.48893483  0.54184527  0.23669330     0.37000
N3409       N  0.48133077  0.55678859  0.21398403    -0.89600
H3410       H  0.48323305  0.57421682  0.26337187     0.18100
H3411       H  0.50922358  0.48076836  0.25582144     0.18100
N3412       N  0.51225222  0.49886938  0.30446168    -0.88600
H3413       H  0.49778006  0.55824332  0.20180634     0.35500
H3414       H  0.47628193  0.57599986  0.21925246     0.40600
H3415       H  0.53145851  0.49243230  0.30112029     0.40200
H3416       H  0.50027548  0.48230395  0.30624465     0.35100
C3417       C  0.57392724  0.47166310  0.14437685    -0.26700
C3418       C  0.55078771  0.48239198  0.13400108    -0.14700
C3419       C  0.55165273  0.49515993  0.10926885     0.35900
C3420       C  0.57569759  0.49756549  0.09603244    -0.26100
C3421       C  0.59891656  0.48749439  0.10675970    -0.15300
C3422       C  0.59790183  0.47421116  0.13119240     0.37000
N3423       N  0.62067997  0.46248392  0.14280117    -0.89600
H3424       H  0.57347271  0.46144792  0.16304054     0.18100
H3425       H  0.57635892  0.50761979  0.07728419     0.18100
N3426       N  0.52810634  0.50526555  0.09738468    -0.88600
H3427       H  0.63413468  0.47723891  0.14738650     0.35500
H3428       H  0.62911499  0.44961331  0.12917571     0.40600
H3429       H  0.51611266  0.48922433  0.09289508     0.40200
H3430       H  0.53229958  0.51454311  0.07955352     0.35100
C3431       C  0.46045706  0.36094028  0.89703156    -0.26700
C3432       C  0.44684812  0.34465989  0.91472388    -0.14700
C3433       C  0.43139791  0.32392385  0.90497013     0.35900
C3434       C  0.42941305  0.32037425  0.87775888    -0.26100
C3435       C  0.44240107  0.33715072  0.86000550    -0.15300
C3436       C  0.45824789  0.35748968  0.86986693     0.37000
N3437       N  0.47188649  0.37490136  0.85250814    -0.89600
H3438       H  0.47240490  0.37699391  0.90425111     0.18100
H3439       H  0.41709209  0.30466768  0.87044220     0.18100
N3440       N  0.41768772  0.30664568  0.92258924    -0.88600
H3441       H  0.49192274  0.37374900  0.85676581     0.35500
H3442       H  0.46562898  0.39407574  0.85644517     0.40600
H3443       H  0.43178731  0.29612793  0.93319301     0.40200
H3444       H  0.40673907  0.29278736  0.91214004     0.35100
C3445       C  0.51481274  0.29275706  0.00488311    -0.26700
C3446       C  0.48734119  0.29412912  0.00372975    -0.14700
C3447       C  0.47282402  0.27037624  0.00273868     0.35900
C3448       C  0.48616550  0.24615434  0.00166022    -0.26100
C3449       C  0.51366651  0.24484513  0.00186608    -0.15300
C3450       C  0.52815036  0.26855810  0.00386312     0.37000
N3451       N  0.55637423  0.26824555  0.00386178    -0.89600
H3452       H  0.52607141  0.31078169  0.00571440     0.18100
H3453       H  0.47493670  0.22814340  0.00030488     0.18100
N3454       N  0.44462737  0.27079158  0.00175217    -0.88600
H3455       H  0.56386965  0.28717017  0.00653753     0.35500
H3456       H  0.56247407  0.26221717  0.98519461     0.40600
H3457       H  0.43794951  0.27717673  0.02009324     0.40200
H3458       H  0.43715985  0.25183462  0.99923453     0.35100
C3459       C  0.44148442  0.42875495  0.09245599    -0.26700
C3460       C  0.46489142  0.42648439  0.10677695    -0.14700
C3461       C  0.48357491  0.40727536  0.09954119     0.35900
C3462       C  0.47850367  0.39079485  0.07809714    -0.26100
C3463       C  0.45528741  0.39314937  0.06359570    -0.15300
C3464       C  0.43650427  0.41227778  0.07094930     0.37000
N3465       N  0.41292496  0.41628439  0.05616432    -0.89600
H3466       H  0.42709572  0.44346830  0.09792105     0.18100
H3467       H  0.49324345  0.37670067  0.07195232     0.18100
N3468       N  0.50810667  0.40526480  0.11338173    -0.88600
H3469       H  0.40223752  0.39877508  0.05617323     0.35500
H3470       H  0.41801984  0.42084108  0.03681152     0.40600
H3471       H  0.51844014  0.42272907  0.11023547     0.40200
H3472       H  0.51963099  0.39013597  0.10561603     0.35100
C3473       C  0.31048922  0.63036186  0.93022459    -0.26700
C3474       C  0.32491220  0.62321388  0.95258373    -0.14700
C3475       C  0.33354070  0.64321023  0.96995698     0.35900
C3476       C  0.32834484  0.66956981  0.96423486    -0.26100
C3477       C  0.31456984  0.67669528  0.94159160    -0.15300
C3478       C  0.30529834  0.65684613  0.92456556     0.37000
N3479       N  0.29154642  0.66346781  0.90094205    -0.89600
H3480       H  0.30379776  0.61542807  0.91662186     0.18100
H3481       H  0.33538702  0.68459518  0.97757418     0.18100
N3482       N  0.34809971  0.63708058  0.99324324    -0.88600
H3483       H  0.27324363  0.65422019  0.90141935     0.35500
H3484       H  0.30208520  0.65585837  0.88503978     0.40600
H3485       H  0.33786351  0.64457981  0.00939154     0.40200
H3486       H  0.36622015  0.64664566  0.99219299     0.35100
C3487       C  0.37529052  0.45560321  0.95915192    -0.26700
C3488       C  0.38544248  0.47875818  0.97001130    -0.14700
C3489       C  0.41017371  0.47802132  0.98264744     0.35900
C3490       C  0.42384527  0.45426958  0.98472171    -0.26100
C3491       C  0.41327001  0.43094104  0.97482011    -0.15300
C3492       C  0.38871237  0.43170365  0.96169979     0.37000
N3493       N  0.37710960  0.40873088  0.95033927    -0.89600
H3494       H  0.35654155  0.45594322  0.94911758     0.18100
H3495       H  0.44257357  0.45399954  0.99481880     0.18100
N3496       N  0.42176621  0.50142774  0.99312651    -0.88600
H3497       H  0.37250610  0.39547068  0.96528280     0.35500
H3498       H  0.39069499  0.40009346  0.93758422     0.40600
H3499       H  0.43989916  0.50425363  0.98394955     0.40200
H3500       H  0.42515215  0.49848587  0.01316653     0.35100
C3501       C  0.62163213  0.57082939  0.84785654    -0.26700
C3502       C  0.60372125  0.58644401  0.83369484    -0.14700
C3503       C  0.61313786  0.60381701  0.81435863     0.35900
C3504       C  0.64026801  0.60608547  0.81057527    -0.26100
C3505       C  0.65820900  0.59122448  0.82550618    -0.15300
C3506       C  0.64868649  0.57305162  0.84391511     0.37000
N3507       N  0.66630513  0.55681966  0.85865727    -0.89600
H3508       H  0.61471014  0.55712822  0.86258632     0.18100
H3509       H  0.64739617  0.62002036  0.79617749     0.18100
N3510       N  0.59528437  0.61914305  0.79873528    -0.88600
H3511       H  0.66163053  0.53718531  0.85485715     0.35500
H3512       H  0.66308864  0.56038287  0.87862274     0.40600
H3513       H  0.58449674  0.60608340  0.78713437     0.40200
H3514       H  0.60553131  0.63131226  0.78577025     0.35100
C3515       C  0.51663835  0.55499070  0.76356869    -0.26700
C3516       C  0.51717871  0.54042924  0.78710064    -0.14700
C3517       C  0.51825881  0.51277034  0.78548803     0.35900
C3518       C  0.51914658  0.50042209  0.76080686    -0.26100
C3519       C  0.51950734  0.51503042  0.73732945    -0.15300
C3520       C  0.51801937  0.54264387  0.73889937     0.37000
N3521       N  0.51807955  0.55834026  0.71556534    -0.89600
H3522       H  0.51597341  0.57625740  0.76420212     0.18100
H3523       H  0.52041821  0.47918025  0.76014390     0.18100
N3524       N  0.51888988  0.49702990  0.80878583    -0.88600
H3525       H  0.53408212  0.57114578  0.71652550     0.35500
H3526       H  0.50093659  0.56963906  0.71540101     0.40600
H3527       H  0.53607955  0.48579684  0.80846553     0.40200
H3528       H  0.50291899  0.48416674  0.80824812     0.35100
C3529       C  0.45856803  0.58202943  0.91298044    -0.26700
C3530       C  0.45668562  0.57796284  0.88580373    -0.14700
C3531       C  0.43250711  0.57057714  0.87465860     0.35900
C3532       C  0.41104102  0.56633020  0.89129924    -0.26100
C3533       C  0.41315122  0.56903127  0.91882581    -0.15300
C3534       C  0.43718790  0.57751803  0.92969767     0.37000
N3535       N  0.44021631  0.58077234  0.95758263    -0.89600
H3536       H  0.47732103  0.58762800  0.92135360     0.18100
H3537       H  0.39270896  0.56009232  0.88252342     0.18100
N3538       N  0.42928268  0.56591725  0.84698648    -0.88600
H3539       H  0.45873300  0.58840717  0.96202940     0.35500
H3540       H  0.43956251  0.56207669  0.96606016     0.40600
H3541       H  0.44660584  0.56941313  0.83663742     0.40200
H3542       H  0.41550697  0.57945149  0.84001186     0.35100
C3543       C  0.52540734  0.64140627  0.92766336    -0.26700
C3544       C  0.54450543  0.62364873  0.91872859    -0.14700
C3545       C  0.56881873  0.62202093  0.93194879     0.35900
C3546       C  0.57328893  0.63761910  0.95416764    -0.26100
C3547       C  0.55366371  0.65432762  0.96387805    -0.15300
C3548       C  0.52959243  0.65649179  0.95039305     0.37000
N3549       N  0.50936523  0.67360276  0.96019947    -0.89600
H3550       H  0.50686460  0.64287406  0.91733320     0.18100
H3551       H  0.59166221  0.63563966  0.96471262     0.18100
N3552       N  0.58930884  0.60485558  0.92315483    -0.88600
H3553       H  0.49278377  0.67281291  0.94813418     0.35500
H3554       H  0.51644842  0.69284871  0.95920316     0.40600
H3555       H  0.59368248  0.60941996  0.90362116     0.40200
H3556       H  0.58251304  0.58551387  0.92398960     0.35100
C3557       C  0.08115061  0.71120719  0.40717073    -0.26700
C3558       C  0.06089148  0.69404014  0.41431306    -0.14700
C3559       C  0.04542745  0.68236150  0.39427861     0.35900
C3560       C  0.05106942  0.68775577  0.36782474    -0.26100
C3561       C  0.07193874  0.70417766  0.36071915    -0.15300
C3562       C  0.08693780  0.71630484  0.38087508     0.37000
N3563       N  0.10883432  0.73311065  0.37552618    -0.89600
H3564       H  0.09317641  0.72034038  0.42215933     0.18100
H3565       H  0.03943321  0.67850132  0.35261125     0.18100
N3566       N  0.02448914  0.66452707  0.40060470    -0.88600
H3567       H  0.10225907  0.74966668  0.36533552     0.35500
H3568       H  0.12253166  0.72282661  0.36419088     0.40600
H3569       H  0.03305621  0.64727115  0.40773518     0.40200
H3570       H  0.01413950  0.65914568  0.38371248     0.35100
C3571       C  0.97603434  0.76820687  0.50354307    -0.26700
C3572       C  0.99159665  0.79107840  0.50291661    -0.14700
C3573       C  0.01911228  0.78824976  0.50409313     0.35900
C3574       C  0.03043251  0.76307342  0.50486589    -0.26100
C3575       C  0.01499818  0.74016758  0.50412065    -0.15300
C3576       C  0.98736627  0.74286550  0.50407559     0.37000
N3577       N  0.97086760  0.71997756  0.50416720    -0.89600
H3578       H  0.95486683  0.77002627  0.50284553     0.18100
H3579       H  0.05164044  0.76155685  0.50502176     0.18100
N3580       N  0.03581203  0.81085960  0.50419353    -0.88600
H3581       H  0.95106404  0.72534645  0.50365318     0.35500
H3582       H  0.97384418  0.71028708  0.52202290     0.40600
H3583       H  0.04837255  0.80958038  0.48800260     0.40200
H3584       H  0.04727030  0.81026079  0.52121171     0.35100
C3585       C  0.13738702  0.60321998  0.71761197    -0.26700
C3586       C  0.15661744  0.59076343  0.70200562    -0.14700
C3587       C  0.14856152  0.57277523  0.68265225     0.35900
C3588       C  0.12180477  0.56793925  0.67894761    -0.26100
C3589       C  0.10256243  0.58090347  0.69397821    -0.15300
C3590       C  0.11046391  0.59849808  0.71380886     0.37000
N3591       N  0.09127890  0.61150109  0.72994511    -0.89600
H3592       H  0.14329192  0.61714701  0.73256847     0.18100
H3593       H  0.11609337  0.55433616  0.66360623     0.18100
N3594       N  0.16736091  0.55950877  0.66646293    -0.88600
H3595       H  0.10039098  0.62409445  0.74335232     0.35500
H3596       H  0.08175255  0.59708466  0.74102965     0.40600
H3597       H  0.16328958  0.56408362  0.64686250     0.40200
H3598       H  0.16483393  0.53927933  0.66893120     0.35100
C3599       C  0.06459170  0.60648854  0.59212233    -0.26700
C3600       C  0.04095416  0.60792960  0.60617702    -0.14700
C3601       C  0.02113114  0.62544834  0.59784767     0.35900
C3602       C  0.02533797  0.64121765  0.57568503    -0.26100
C3603       C  0.04898681  0.64010259  0.56172647    -0.15300
C3604       C  0.06890653  0.62259368  0.56998282     0.37000
N3605       N  0.09281317  0.62031267  0.55517080    -0.89600
H3606       H  0.07977768  0.59307154  0.59863386     0.18100
H3607       H  0.00984038  0.65414357  0.56890063     0.18100
N3608       N  0.99651642  0.62671525  0.61164229    -0.88600
H3609       H  0.10489070  0.60576564  0.56319791     0.35500
H3610       H  0.10297146  0.63803434  0.55710013     0.40600
H3611       H  0.98729357  0.60848940  0.60955132     0.40200
H3612       H  0.98407479  0.64062663  0.60307243     0.35100
C3613       C  0.19967141  0.41094883  0.42707855    -0.26700
C3614       C  0.19158530  0.41946765  0.45197981    -0.14700
C3615       C  0.18921580  0.40088648  0.47259638     0.35900
C3616       C  0.19274488  0.37407498  0.46720529    -0.26100
C3617       C  0.19978694  0.36557069  0.44207525    -0.15300
C3618       C  0.20390406  0.38420350  0.42190057     0.37000
N3619       N  0.21159853  0.37586141  0.39601879    -0.89600
H3620       H  0.20170906  0.42505540  0.41128332     0.18100
H3621       H  0.19030607  0.35974617  0.48275246     0.18100
N3622       N  0.18316826  0.40921966  0.49890230    -0.88600
H3623       H  0.21394115  0.39203761  0.38356032     0.35500
H3624       H  0.19632339  0.36467135  0.38821822     0.40600
H3625       H  0.19892422  0.42057452  0.50553495     0.40200
H3626       H  0.18188685  0.39308942  0.51154482     0.35100
C3627       C  0.23164110  0.51096282  0.52725749    -0.26700
C3628       C  0.23171378  0.50978905  0.49971515    -0.14700
C3629       C  0.25612026  0.51039770  0.48636291     0.35900
C3630       C  0.27961068  0.51125942  0.50089086    -0.26100
C3631       C  0.27956349  0.51132302  0.52848504    -0.15300
C3632       C  0.25512684  0.51191917  0.54178122     0.37000
N3633       N  0.25405657  0.51252983  0.56998897    -0.89600
H3634       H  0.21307897  0.51071442  0.53762634     0.18100
H3635       H  0.29816195  0.51099953  0.49050143     0.18100
N3636       N  0.25719254  0.50910172  0.45816525    -0.88600
H3637       H  0.23467754  0.51121662  0.57658952     0.35500
H3638       H  0.26086038  0.53095511  0.57598034     0.40600
H3639       H  0.25087478  0.49037477  0.45259316     0.40200
H3640       H  0.27652858  0.51082011  0.45151114     0.35100
C3641       C  0.10350752  0.56093834  0.47996759    -0.26700
C3642       C  0.12786572  0.56270862  0.46706969    -0.14700
C3643       C  0.13558815  0.58695600  0.45612087     0.35900
C3644       C  0.11910474  0.60904358  0.45915430    -0.26100
C3645       C  0.09495088  0.60713727  0.47244178    -0.15300
C3646       C  0.08706804  0.58277863  0.48263950     0.37000
N3647       N  0.06286787  0.58035656  0.49675167    -0.89600
H3648       H  0.09706982  0.54237777  0.48815494     0.18100
H3649       H  0.12522428  0.62788463  0.45138620     0.18100
N3650       N  0.16019588  0.58922897  0.44253154    -0.88600
H3651       H  0.06713676  0.57381253  0.51574107     0.35500
H3652       H  0.05150337  0.56600322  0.48747389     0.40600
H3653       H  0.17514656  0.58591250  0.45619792     0.40200
H3654       H  0.16277495  0.60835311  0.43550825     0.35100
C3655       C  0.89085309  0.47678330  0.34448239    -0.26700
C3656       C  0.90887157  0.46089256  0.33085176    -0.14700
C3657       C  0.89957145  0.44320523  0.31171121     0.35900
C3658       C  0.87240471  0.44061399  0.30792944    -0.26100
C3659       C  0.85428411  0.45527160  0.32286866    -0.15300
C3660       C  0.86387052  0.47410523  0.34089667     0.37000
N3661       N  0.84692925  0.49070119  0.35606123    -0.89600
H3662       H  0.89767369  0.49080247  0.35897125     0.18100
H3663       H  0.86539805  0.42641293  0.29372489     0.18100
N3664       N  0.91760247  0.42775922  0.29641160    -0.88600
H3665       H  0.83592006  0.47912064  0.36890921     0.35500
H3666       H  0.83441497  0.50082592  0.34331623     0.40600
H3667       H  0.92850670  0.44071455  0.28481969     0.40200
H3668       H  0.90748809  0.41545378  0.28345586     0.35100
C3669       C  0.05256060  0.47023989  0.41598098    -0.26700
C3670       C  0.05451652  0.46689549  0.38871570    -0.14700
C3671       C  0.07933703  0.46599611  0.37675734     0.35900
C3672       C  0.10186482  0.46955554  0.39237334    -0.26100
C3673       C  0.09993917  0.47378048  0.41968745    -0.15300
C3674       C  0.07491102  0.47374368  0.43163628     0.37000
N3675       N  0.07207270  0.47830940  0.45936942    -0.89600
H3676       H  0.03329827  0.47087655  0.42502009     0.18100
H3677       H  0.12099146  0.46951747  0.38308544     0.18100
N3678       N  0.08149044  0.46294754  0.34878516    -0.88600
H3679       H  0.05239337  0.47687763  0.46501058     0.35500
H3680       H  0.07771217  0.49770802  0.46306330     0.40600
H3681       H  0.07467192  0.44418078  0.34403887     0.40200
H3682       H  0.10116416  0.46360594  0.34298900     0.35100
C3683       C  0.92794584  0.31928304  0.62022547    -0.26700
C3684       C  0.94460614  0.33967064  0.61235553    -0.14700
C3685       C  0.95737351  0.35496652  0.63175761     0.35900
C3686       C  0.95319359  0.34969265  0.65832212    -0.26100
C3687       C  0.93622895  0.32964076  0.66629244    -0.15300
C3688       C  0.92366198  0.31408368  0.64694261     0.37000
N3689       N  0.90612810  0.29332732  0.65416654    -0.89600
H3690       H  0.91800111  0.30743429  0.60561557     0.18100
H3691       H  0.96292674  0.36189928  0.67278098     0.18100
N3692       N  0.97394651  0.37658829  0.62473500    -0.88600
H3693       H  0.91317799  0.27583621  0.64600952     0.35500
H3694       H  0.88777653  0.29728268  0.64587006     0.40600
H3695       H  0.99251244  0.37331958  0.63284528     0.40200
H3696       H  0.96620272  0.39366860  0.63314075     0.35100
C3697       C  0.98292452  0.27279017  0.51979193    -0.26700
C3698       C  0.99650108  0.29675201  0.52243617    -0.14700
C3699       C  0.02422554  0.29627543  0.52304641     0.35900
C3700       C  0.03748068  0.27194229  0.52242073    -0.26100
C3701       C  0.02374609  0.24797368  0.52125892    -0.15300
C3702       C  0.99614582  0.24853672  0.51919442     0.37000
N3703       N  0.98153932  0.22449184  0.51689830    -0.89600
H3704       H  0.96168815  0.27280830  0.51896538     0.18100
H3705       H  0.05868819  0.27170494  0.52385619     0.18100
N3706       N  0.03886498  0.32032766  0.52487876    -0.88600
H3707       H  0.98667470  0.21581190  0.49900721     0.35500
H3708       H  0.96139151  0.22829294  0.51599641     0.40600
H3709       H  0.03571579  0.33080168  0.50750057     0.40200
H3710       H  0.05900100  0.31648009  0.52579342     0.35100
C3711       C  0.96113134  0.42217019  0.46789821    -0.26700
C3712       C  0.95673646  0.39497211  0.46620622    -0.14700
C3713       C  0.95489776  0.38308458  0.44130094     0.35900
C3714       C  0.95848135  0.39842781  0.41872713    -0.26100
C3715       C  0.96375413  0.42557731  0.42044175    -0.15300
C3716       C  0.96460246  0.43752804  0.44537907     0.37000
N3717       N  0.97006257  0.46499981  0.44809421    -0.89600
H3718       H  0.96238909  0.43156524  0.48697506     0.18100
H3719       H  0.95769948  0.38889405  0.39971466     0.18100
N3720       N  0.95069896  0.35542722  0.43837936    -0.88600
H3721       H  0.98704216  0.46706231  0.45943583     0.35500
H3722       H  0.95450512  0.47365730  0.45832676     0.40600
H3723       H  0.93268088  0.35068217  0.44693660     0.40200
H3724       H  0.96555141  0.34547180  0.44847494     0.35100
C3725       C  0.84585896  0.66311707  0.56528768    -0.26700
C3726       C  0.82223163  0.67169637  0.57652332    -0.14700
C3727       C  0.80283742  0.65287346  0.58313782     0.35900
C3728       C  0.80798064  0.62610601  0.57966706    -0.26100
C3729       C  0.83194045  0.61759784  0.56938238    -0.15300
C3730       C  0.85091419  0.63629430  0.56177308     0.37000
N3731       N  0.87585765  0.62812606  0.55165111    -0.89600
H3732       H  0.86100409  0.67715469  0.56021665     0.18100
H3733       H  0.79314881  0.61188886  0.58519071     0.18100
N3734       N  0.77800216  0.66066632  0.59381811    -0.88600
H3735       H  0.89049132  0.63543158  0.56405238     0.35500
H3736       H  0.87834011  0.63665969  0.53314760     0.40600
H3737       H  0.77585512  0.65178431  0.61220690     0.40200
H3738       H  0.76321947  0.65351096  0.58151468     0.35100
C3739       C  0.77849490  0.52402551  0.49862979    -0.26700
C3740       C  0.77939245  0.53168526  0.52508580    -0.14700
C3741       C  0.75559279  0.53877555  0.53774156     0.35900
C3742       C  0.73200087  0.53869224  0.52368899    -0.26100
C3743       C  0.73109850  0.53170840  0.49702560    -0.15300
C3744       C  0.75467278  0.52371742  0.48461283     0.37000
N3745       N  0.75471894  0.51556168  0.45769593    -0.89600
H3746       H  0.79642636  0.51833925  0.48868213     0.18100
H3747       H  0.71429551  0.54497205  0.53367850     0.18100
N3748       N  0.75476592  0.54744549  0.56450859    -0.88600
H3749       H  0.76212912  0.49641687  0.45682133     0.35500
H3750       H  0.76749801  0.52780555  0.44731219     0.40600
H3751       H  0.76755812  0.56333819  0.56675673     0.40200
H3752       H  0.76068610  0.53203808  0.57669423     0.35100
C3753       C  0.88815855  0.45763698  0.58044952    -0.26700
C3754       C  0.87234170  0.46627408  0.55958582    -0.14700
C3755       C  0.87200070  0.45204240  0.53583882     0.35900
C3756       C  0.88840640  0.43010638  0.53298810    -0.26100
C3757       C  0.90552929  0.42251670  0.55316763    -0.15300
C3758       C  0.90493737  0.43602216  0.57737623     0.37000
N3759       N  0.92100761  0.42815764  0.59907581    -0.89600
H3760       H  0.88868705  0.46869329  0.59864004     0.18100
H3761       H  0.88852509  0.41940282  0.51457589     0.18100
N3762       N  0.85554152  0.46044854  0.51448720    -0.88600
H3763       H  0.94068537  0.42961257  0.59351414     0.35500
H3764       H  0.91691340  0.40850195  0.60340368     0.40600
H3765       H  0.83604913  0.45870281  0.52064742     0.40200
H3766       H  0.85776637  0.44799539  0.49830190     0.35100
C3767       C  0.93017489  0.53106454  0.60844733    -0.26700
C3768       C  0.91324422  0.55252796  0.60594257    -0.14700
C3769       C  0.91757170  0.57532275  0.62129031     0.35900
C3770       C  0.93942668  0.57633427  0.63805344    -0.26100
C3771       C  0.95690467  0.55506161  0.64015408    -0.15300
C3772       C  0.95165019  0.53180680  0.62568751     0.37000
N3773       N  0.96800519  0.50893421  0.62855613    -0.89600
H3774       H  0.92613340  0.51329399  0.59741276     0.18100
H3775       H  0.94311289  0.59423600  0.64896229     0.18100
N3776       N  0.90045542  0.59780880  0.62027712    -0.88600
H3777       H  0.96162144  0.49374855  0.61628926     0.35500
H3778       H  0.96581046  0.50218023  0.64782275     0.40600
H3779       H  0.88519396  0.59518149  0.60687742     0.40200
H3780       H  0.91145375  0.61369603  0.61336782     0.35100
C3781       C  0.96170624  0.68774136  0.89684664    -0.26700
C3782       C  0.94430140  0.69862330  0.91540123    -0.14700
C3783       C  0.92344900  0.71463534  0.90649557     0.35900
C3784       C  0.92002465  0.71846225  0.87935953    -0.26100
C3785       C  0.93666484  0.70637640  0.86091485    -0.15300
C3786       C  0.95819160  0.69148930  0.86982280     0.37000
N3787       N  0.97649749  0.68030808  0.85146229    -0.89600
H3788       H  0.97804665  0.67578025  0.90335461     0.18100
H3789       H  0.90359650  0.73015547  0.87256687     0.18100
N3790       N  0.90569796  0.72679747  0.92478175    -0.88600
H3791       H  0.99096052  0.66948942  0.86122929     0.35500
H3792       H  0.98612526  0.69591868  0.84228512     0.40600
H3793       H  0.89403779  0.71194377  0.93280245     0.40200
H3794       H  0.89282430  0.73947793  0.91502533     0.35100
C3795       C  0.02093507  0.74428281  0.00691204    -0.26700
C3796       C  0.99357857  0.74362624  0.00362610    -0.14700
C3797       C  0.97977819  0.76776935  0.00182967     0.35900
C3798       C  0.99361836  0.79164813  0.00280506    -0.26100
C3799       C  0.02105972  0.79238980  0.00518747    -0.15300
C3800       C  0.03480295  0.76827954  0.00799489     0.37000
N3801       N  0.06281913  0.76804128  0.01125175    -0.89600
H3802       H  0.03161648  0.72593613  0.00848536     0.18100
H3803       H  0.98282482  0.80988088  0.00078651     0.18100
N3804       N  0.95181749  0.76812421  0.99794615    -0.88600
H3805       H  0.06993001  0.74876798  0.01176552     0.35500
H3806       H  0.06690392  0.77616365  0.02965994     0.40600
H3807       H  0.94809416  0.76049672  0.97923544     0.40200
H3808       H  0.94465287  0.78737353  0.99786923     0.35100
C3809       C  0.88990988  0.56481679  0.17992781    -0.26700
C3810       C  0.90930616  0.57637974  0.19577922    -0.14700
C3811       C  0.90179030  0.59243222  0.21701145     0.35900
C3812       C  0.87513118  0.59808036  0.22074513    -0.26100
C3813       C  0.85581207  0.58806993  0.20368776    -0.15300
C3814       C  0.86331813  0.57059832  0.18359351     0.37000
N3815       N  0.84420368  0.55910823  0.16647622    -0.89600
H3816       H  0.89542283  0.55212369  0.16374395     0.18100
H3817       H  0.86958458  0.61109954  0.23663812     0.18100
N3818       N  0.92118994  0.60324800  0.23442803    -0.88600
H3819       H  0.84578438  0.53867799  0.16791979     0.35500
H3820       H  0.84879360  0.56447868  0.14719714     0.40600
H3821       H  0.93012919  0.58755784  0.24422494     0.40200
H3822       H  0.91235433  0.61490448  0.24884835     0.35100
C3823       C  0.99697899  0.50173820  0.23873149    -0.26700
C3824       C  0.00035147  0.52909215  0.23806613    -0.14700
C3825       C  0.00544339  0.54244778  0.26191062     0.35900
C3826       C  0.00523618  0.52862223  0.28579089    -0.26100
C3827       C  0.00051313  0.50148621  0.28656340    -0.15300
C3828       C  0.99720730  0.48774630  0.26254221     0.37000
N3829       N  0.99272500  0.45985080  0.26232846    -0.89600
H3830       H  0.99340414  0.49119422  0.22060069     0.18100
H3831       H  0.00816777  0.53937684  0.30392484     0.18100
N3832       N  0.01006275  0.57019694  0.26222200    -0.88600
H3833       H  0.01027821  0.45076571  0.26785648     0.35500
H3834       H  0.98867173  0.45323356  0.24331309     0.40600
H3835       H  0.02841166  0.57350145  0.27078994     0.40200
H3836       H  0.99581799  0.57897964  0.27412459     0.35100
C3837       C  0.97059106  0.61536814  0.05905294    -0.26700
C3838       C  0.96132066  0.64131354  0.06085598    -0.14700
C3839       C  0.95312021  0.65111366  0.08539710     0.35900
C3840       C  0.95563259  0.63508077  0.10784427    -0.26100
C3841       C  0.96536487  0.60923205  0.10600459    -0.15300
C3842       C  0.97220591  0.59906355  0.08115924     0.37000
N3843       N  0.98182018  0.57261451  0.07851852    -0.89600
H3844       H  0.97625593  0.60755851  0.04007219     0.18100
H3845       H  0.95023541  0.64285920  0.12690760     0.18100
N3846       N  0.94289960  0.67734772  0.08754862    -0.88600
H3847       H  0.98775585  0.56891325  0.05921177     0.35500
H3848       H  0.96607263  0.55997213  0.08211382     0.40600
H3849       H  0.95801856  0.69033427  0.08267262     0.40200
H3850       H  0.93764679  0.68145789  0.10696719     0.35100
C3851       C  0.16917936  0.63770001  0.06091170    -0.26700
C3852       C  0.18470835  0.61943745  0.07470467    -0.14700
C3853       C  0.20442792  0.62854036  0.09166931     0.35900
C3854       C  0.20785493  0.65553969  0.09504109    -0.26100
C3855       C  0.19172389  0.67386422  0.08200019    -0.15300
C3856       C  0.17241280  0.66476152  0.06451735     0.37000
N3857       N  0.15590580  0.68276715  0.05056487    -0.89600
H3858       H  0.15390461  0.63100250  0.04771372     0.18100
H3859       H  0.22288031  0.66206578  0.10860292     0.18100
N3860       N  0.22103842  0.61054234  0.10552774    -0.88600
H3861       H  0.13640461  0.67862016  0.05540321     0.35500
H3862       H  0.15832537  0.67937574  0.03045809     0.40600
H3863       H  0.21896374  0.61411783  0.12564297     0.40200
H3864       H  0.24048975  0.61448919  0.10033596     0.35100
C3865       C  0.23635333  0.52673896  0.00254308    -0.26700
C3866       C  0.23521673  0.53289146  0.02931112    -0.14700
C3867       C  0.25880524  0.53810364  0.04304702     0.35900
C3868       C  0.28282064  0.53775129  0.02947941    -0.26100
C3869       C  0.28394108  0.53256884  0.00243197    -0.15300
C3870       C  0.26038686  0.52608709  0.98900343     0.37000
N3871       N  0.26070616  0.51940230  0.96156245    -0.89600
H3872       H  0.21833669  0.52245419  0.99209091     0.18100
H3873       H  0.30065963  0.54262297  0.03996326     0.18100
N3874       N  0.25828245  0.54487597  0.07047373    -0.88600
H3875       H  0.24167861  0.51624592  0.95457105     0.35500
H3876       H  0.27057273  0.50147075  0.95972872     0.40600
H3877       H  0.24875364  0.56300049  0.07221920     0.40200
H3878       H  0.27729666  0.54760058  0.07768216     0.35100
C3879       C  0.05227215  0.55574257  0.11037197    -0.26700
C3880       C  0.05388723  0.56332092  0.13683988    -0.14700
C3881       C  0.07864136  0.56862404  0.14796887     0.35900
C3882       C  0.10123580  0.56551803  0.13260892    -0.26100
C3883       C  0.09960960  0.55765850  0.10612701    -0.15300
C3884       C  0.07480429  0.55298427  0.09493725     0.37000
N3885       N  0.07238755  0.54450044  0.06822098    -0.89600
H3886       H  0.03330672  0.55176155  0.10158572     0.18100
H3887       H  0.12021362  0.56913188  0.14149814     0.18100
N3888       N  0.08148425  0.57617747  0.17491405    -0.88600
H3889       H  0.06053406  0.55801840  0.05829494     0.35500
H3890       H  0.06280929  0.52634291  0.06809853     0.40600
H3891       H  0.07275584  0.56178913  0.18666247     0.40200
H3892       H  0.07157889  0.59393032  0.17780732     0.35100
C3893       C  0.80536190  0.41006131  0.94468411    -0.26700
C3894       C  0.83052539  0.41739641  0.95278210    -0.14700
C3895       C  0.84984142  0.39796241  0.95671881     0.35900
C3896       C  0.84382779  0.37153189  0.95220406    -0.26100
C3897       C  0.81880780  0.36404448  0.94359937    -0.15300
C3898       C  0.79910916  0.38352832  0.94040495     0.37000
N3899       N  0.77289966  0.37640725  0.93274300    -0.89600
H3900       H  0.79050505  0.42506134  0.94192778     0.18100
H3901       H  0.85917836  0.35695679  0.95445909     0.18100
N3902       N  0.87600685  0.40512836  0.96409323    -0.88600
H3903       H  0.76104788  0.39308679  0.93090994     0.35500
H3904       H  0.76488569  0.36518008  0.94794801     0.40600
H3905       H  0.88882815  0.39847531  0.94949125     0.40200
H3906       H  0.88063202  0.39537012  0.98155083     0.35100
C3907       C  0.78265864  0.49968893  0.02845254    -0.26700
C3908       C  0.78401089  0.50729370  0.00191612    -0.14700
C3909       C  0.76083885  0.51671474  0.98963821     0.35900
C3910       C  0.73690317  0.51669933  0.00359580    -0.26100
C3911       C  0.73555796  0.50830172  0.02979709    -0.15300
C3912       C  0.75882154  0.49998639  0.04244784     0.37000
N3913       N  0.75804068  0.49079287  0.06914825    -0.89600
H3914       H  0.80016023  0.49255433  0.03819571     0.18100
H3915       H  0.71913531  0.52332729  0.99395518     0.18100
N3916       N  0.76146563  0.52597397  0.96298547    -0.88600
H3917       H  0.77682148  0.48565528  0.07563838     0.35500
H3918       H  0.74689188  0.47355748  0.06945880     0.40600
H3919       H  0.77284167  0.54305589  0.96270192     0.40200
H3920       H  0.74269828  0.53147067  0.95674906     0.35100
C3921       C  0.88521476  0.57590458  0.99342732    -0.26700
C3922       C  0.88199778  0.56497878  0.96835095    -0.14700
C3923       C  0.89451652  0.57690983  0.94660398     0.35900
C3924       C  0.90998562  0.59956150  0.95057303    -0.26100
C3925       C  0.91307214  0.61028547  0.97576332    -0.15300
C3926       C  0.90042506  0.59831638  0.99731049     0.37000
N3927       N  0.90347384  0.60797450  0.02356706    -0.89600
H3928       H  0.87613271  0.56667039  0.01031534     0.18100
H3929       H  0.91964685  0.60885611  0.93405589     0.18100
N3930       N  0.89220946  0.56557796  0.92084334    -0.88600
H3931       H  0.89623581  0.62716099  0.02449458     0.35500
H3932       H  0.92347322  0.60823737  0.02804915     0.40600
H3933       H  0.90143423  0.54722055  0.92125430     0.40200
H3934       H  0.90237611  0.57689704  0.90706554     0.35100
C3935       C  0.05478532  0.35139263  0.13305708    -0.26700
C3936       C  0.07007445  0.33797439  0.11429745    -0.14700
C3937       C  0.08859326  0.31925365  0.12282583     0.35900
C3938       C  0.09228151  0.31540352  0.14979235    -0.26100
C3939       C  0.07775305  0.32955105  0.16863681    -0.15300
C3940       C  0.05845056  0.34749172  0.15997597     0.37000
N3941       N  0.04221899  0.36197177  0.17781940    -0.89600
H3942       H  0.04027300  0.36567198  0.12684971     0.18100
H3943       H  0.10702288  0.30139911  0.15605946     0.18100
N3944       N  0.10375425  0.30433472  0.10422082    -0.88600
H3945       H  0.05410030  0.37424974  0.18916194     0.35500
H3946       H  0.03248460  0.34869256  0.19007085     0.40600
H3947       H  0.09075757  0.29219270  0.09397826     0.40200
H3948       H  0.11696188  0.29188415  0.11382746     0.35100
C3949       C  0.03904771  0.27064310  0.02485696    -0.26700
C3950       C  0.02483361  0.29426386  0.02301767    -0.14700
C3951       C  0.99748343  0.29310646  0.01923401     0.35900
C3952       C  0.98477682  0.26866099  0.01860119    -0.26100
C3953       C  0.99874381  0.24500711  0.02193646    -0.15300
C3954       C  0.02637785  0.24607444  0.02442441     0.37000
N3955       N  0.04149454  0.22236485  0.02710830    -0.89600
H3956       H  0.06011090  0.27132535  0.02765028     0.18100
H3957       H  0.96363359  0.26836390  0.01639781     0.18100
N3958       N  0.98242788  0.31669206  0.01620849    -0.88600
H3959       H  0.06140836  0.22666001  0.02948049     0.35500
H3960       H  0.03984705  0.21196217  0.00947366     0.40600
H3961       H  0.96824734  0.31718498  0.03104217     0.40200
H3962       H  0.97271490  0.31578755  0.99814640     0.35100
C3963       C  0.10882093  0.47370818  0.05474058    -0.26700
C3964       C  0.13563423  0.47195190  0.06061710    -0.14700
C3965       C  0.14721917  0.44727913  0.06493875     0.35900
C3966       C  0.13159325  0.42458636  0.06269746    -0.26100
C3967       C  0.10470515  0.42636213  0.05635852    -0.15300
C3968       C  0.09327872  0.45128186  0.05266589     0.37000
N3969       N  0.06613155  0.45397913  0.04584703    -0.89600
H3970       H  0.09981896  0.49276131  0.05157486     0.18100
H3971       H  0.14051942  0.40545962  0.06546425     0.18100
N3972       N  0.17474135  0.44534492  0.07076184    -0.88600
H3973       H  0.06496535  0.46372879  0.02780881     0.35500
H3974       H  0.05710427  0.46576864  0.06004031     0.40600
H3975       H  0.18503970  0.45222186  0.05438975     0.40200
H3976       H  0.18018162  0.42569434  0.07328202     0.35100
C3977       C  0.13005829  0.47403174  0.85086251    -0.26700
C3978       C  0.11173058  0.45967004  0.83593021    -0.14700
C3979       C  0.12112417  0.44293612  0.81585490     0.35900
C3980       C  0.14818307  0.44058567  0.81164643    -0.26100
C3981       C  0.16650215  0.45426741  0.82720458    -0.15300
C3982       C  0.15719995  0.47159422  0.84675975     0.37000
N3983       N  0.17520231  0.48649265  0.86260006    -0.89600
H3984       H  0.12323306  0.48701470  0.86628545     0.18100
H3985       H  0.15489199  0.42728933  0.79643367     0.18100
N3986       N  0.10385489  0.42815970  0.79931871    -0.88600
H3987       H  0.16514322  0.49768928  0.87657456     0.35500
H3988       H  0.18469573  0.49983811  0.85022351     0.40600
H3989       H  0.09072848  0.44113010  0.79030884     0.40200
H3990       H  0.09341339  0.41483563  0.81088812     0.35100
C3991       C  0.01186603  0.49227327  0.76992984    -0.26700
C3992       C  0.01954701  0.50694181  0.79216306    -0.14700
C3993       C  0.02454765  0.53409995  0.78911091     0.35900
C3994       C  0.02327851  0.54538984  0.76392799    -0.26100
C3995       C  0.01715314  0.53031381  0.74161206    -0.15300
C3996       C  0.01070159  0.50368674  0.74482835     0.37000
N3997       N  0.00285001  0.48818567  0.72271737    -0.89600
H3998       H  0.00742234  0.47154866  0.77180001     0.18100
H3999       H  0.02805831  0.56599833  0.76159976     0.18100
N4000       N  0.03170118  0.55003450  0.81129568    -0.88600
H4001       H  0.98407396  0.48082180  0.72647386     0.35500
H4002       H  0.01570887  0.47224311  0.72117286     0.40600
H4003       H  0.01532880  0.55114338  0.82362248     0.40200
H4004       H  0.03580688  0.56928135  0.80543364     0.35100
C4005       C  0.94182977  0.46308418  0.88233742    -0.26700
C4006       C  0.96541506  0.47207364  0.89338034    -0.14700
C4007       C  0.96519297  0.48208699  0.91935946     0.35900
C4008       C  0.94135646  0.48436085  0.93297738    -0.26100
C4009       C  0.91761208  0.47667300  0.92150232    -0.15300
C4010       C  0.91794465  0.46542457  0.89614190     0.37000
N4011       N  0.89416815  0.45601164  0.88450656    -0.89600
H4012       H  0.94182531  0.45475301  0.86275418     0.18100
H4013       H  0.94128285  0.49269961  0.95256342     0.18100
N4014       N  0.98926296  0.48969891  0.93200457    -0.88600
H4015       H  0.89655550  0.43601717  0.88042557     0.35500
H4016       H  0.89144775  0.46584018  0.86668811     0.40600
H4017       H  0.00064438  0.47275032  0.93433246     0.40200
H4018       H  0.98565152  0.49695203  0.95087941     0.35100
C4019       C  0.03599934  0.39266086  0.95397205    -0.26700
C4020       C  0.05971970  0.39336392  0.96776398    -0.14700
C4021       C  0.07999131  0.41037398  0.95942567     0.35900
C4022       C  0.07601748  0.42625015  0.93708693    -0.26100
C4023       C  0.05222950  0.42523007  0.92329300    -0.15300
C4024       C  0.03214462  0.40832657  0.93183084     0.37000
N4025       N  0.00738752  0.40772321  0.91849101    -0.89600
H4026       H  0.02013089  0.38021736  0.96075615     0.18100
H4027       H  0.09138818  0.43934801  0.93042635     0.18100
N4028       N  0.10401558  0.41211383  0.97412515    -0.88600
H4029       H  0.99274429  0.41292472  0.93191224     0.35500
H4030       H  0.00390657  0.38843460  0.91236121     0.40600
H4031       H  0.09947206  0.41983354  0.99260834     0.40200
H4032       H  0.11687293  0.42543579  0.96526908     0.35100
loop_ 
_geom_bond_atom_site_label_1 
_geom_bond_atom_site_label_2 
_geom_bond_distance 
_geom_bond_site_symmetry_2 
_ccdc_geom_bond_type 
O1            V9   1.911       .  S
O1           C11   1.269       .  A
O2            V9   1.911       .  S
O2           C12   1.266       .  A
O3            V9   1.882       .  S
O3           C13   1.260       .  A
O4            V9   1.886       .  S
O4           C14   1.261   1_455  A
O5           V10   1.920   1_655  S
O5           C14   1.269       .  A
O6           V10   1.917       .  S
O6           C13   1.269       .  A
O7           V10   1.881       .  S
O7           C12   1.259       .  A
O8           V10   1.891       .  S
O8           C11   1.262       .  A
V9           V10   2.085       .  T
C11        C3992   1.493       .  S
C12        C4023   1.467       .  S
C13        C3978   1.488       .  S
C14        C4006   1.487       .  S
O15          V23   1.904       .  S
O15          C25   1.266       .  A
O16          V23   1.901       .  S
O16          C26   1.267       .  A
O17          V23   1.881       .  S
O17          C27   1.260   1_554  A
O18          V23   1.883       .  S
O18          C28   1.260       .  A
O19          V24   1.901       .  S
O19          C28   1.267       .  A
O20          V24   1.909   1_556  S
O20          C27   1.266       .  A
O21          V24   1.888       .  S
O21          C26   1.261       .  A
O22          V24   1.898       .  S
O22          C25   1.264       .  A
V23          V24   2.085       .  T
C25        C3950   1.486       .  S
C26        C3967   1.477       .  S
C27        C4020   1.468       .  S
C28        C3936   1.479       .  S
O29          V37   1.908       .  S
O29          C39   1.268       .  A
O30          V37   1.904       .  S
O30          C40   1.267       .  A
O31          V37   1.886       .  S
O31          C41   1.262       .  A
O32          V37   1.885       .  S
O32          C42   1.260       .  A
O33          V38   1.905       .  S
O33          C42   1.266       .  A
O34          V38   1.912       .  S
O34          C41   1.267       .  A
O35          V38   1.904       .  S
O35          C40   1.264       .  A
O36          V38   1.908       .  S
O36          C39   1.266       .  A
V37          V38   2.082       .  T
C39        C3908   1.500   1_556  S
C40        C4009   1.484       .  S
C41        C3922   1.479       .  S
C42        C3894   1.470       .  S
O43          V51   1.909       .  S
O43          C53   1.268       .  A
O44          V51   1.906       .  S
O44          C54   1.268       .  A
O45          V51   1.876       .  S
O45          C55   1.258       .  A
O46          V51   1.874       .  S
O46          C56   1.258       .  A
O47          V52   1.910       .  S
O47          C56   1.267       .  A
O48          V52   1.903       .  S
O48          C55   1.267       .  A
O49          V52   1.887       .  S
O49          C54   1.261       .  A
O50          V52   1.888       .  S
O50          C53   1.261       .  A
V51          V52   2.087       .  T
C53        C3866   1.482       .  S
C54        C3883   1.477       .  S
C55        C3852   1.472       .  S
C56        C3964   1.465       .  S
O57          V65   1.907       .  S
O57          C67   1.268       .  A
O58          V65   1.903       .  S
O58          C68   1.266       .  A
O59          V65   1.881   1_455  S
O59          C69   1.260       .  A
O60          V65   1.882       .  S
O60          C70   1.260       .  A
O61          V66   1.901       .  S
O61          C70   1.266       .  A
O62          V66   1.909   1_455  S
O62          C69   1.266       .  A
O63          V66   1.896       .  S
O63          C68   1.263       .  A
O64          V66   1.896       .  S
O64          C67   1.263       .  A
V65          V66   2.086       .  T
C67        C3824   1.491   1_655  S
C68        C3841   1.481       .  S
C69        C3880   1.471       .  S
C70        C3810   1.473       .  S
O71          V79   1.918       .  S
O71          C81   1.270   1_556  A
O72          V79   1.914       .  S
O72          C82   1.267       .  A
O73          V79   1.881       .  S
O73          C83   1.261       .  A
O74          V79   1.884   1_554  S
O74          C84   1.261       .  A
O75          V80   1.913   1_554  S
O75          C84   1.268       .  A
O76          V80   1.910       .  S
O76          C83   1.268       .  A
O77          V80   1.889       .  S
O77          C82   1.260       .  A
O78          V80   1.893   1_554  S
O78          C81   1.262       .  A
V79          V80   2.085       .  T
C81        C3796   1.495       .  S
C82        C3925   1.473       .  S
C83        C3782   1.486       .  S
C84        C3838   1.480       .  S
O85          V93   1.916       .  S
O85          C95   1.270       .  A
O86          V93   1.915       .  S
O86          C96   1.269       .  A
O87          V93   1.880       .  S
O87          C97   1.260       .  A
O88          V93   1.882       .  S
O88          C98   1.259       .  A
O89          V94   1.904       .  S
O89          C98   1.268       .  A
O90          V94   1.911       .  S
O90          C97   1.267       .  A
O91          V94   1.886       .  S
O91          C96   1.259       .  A
O92          V94   1.891       .  S
O92          C95   1.261       .  A
V93          V94   2.084       .  T
C95        C3740   1.488       .  S
C96        C3768   1.469       .  S
C97        C3754   1.470       .  S
C98        C3729   1.471       .  S
O99         V107   1.916       .  S
O99         C109   1.270       .  A
O100        V107   1.912       .  S
O100        C110   1.268       .  A
O101        V107   1.870       .  S
O101        C111   1.256       .  A
O102        V107   1.877       .  S
O102        C112   1.259       .  A
O103        V108   1.916       .  S
O103        C112   1.269       .  A
O104        V108   1.915       .  S
O104        C111   1.270       .  A
O105        V108   1.884       .  S
O105        C110   1.259       .  A
O106        V108   1.890       .  S
O106        C109   1.262       .  A
V107        V108   2.085       .  T
C109       C3698   1.494       .  S
C110       C3757   1.471       .  S
C111       C3684   1.478       .  S
C112       C3712   1.474       .  S
O113        V121   1.912       .  S
O113        C123   1.269       .  A
O114        V121   1.908       .  S
O114        C124   1.268       .  A
O115        V121   1.881   1_455  S
O115        C125   1.259       .  A
O116        V121   1.880       .  S
O116        C126   1.260       .  A
O117        V122   1.907       .  S
O117        C126   1.267       .  A
O118        V122   1.913   1_455  S
O118        C125   1.267       .  A
O119        V122   1.889       .  S
O119        C124   1.261       .  A
O120        V122   1.889       .  S
O120        C123   1.261       .  A
V121        V122   2.086       .  T
C123       C3827   1.489   1_655  S
C124       C3715   1.483       .  S
C125       C3670   1.470       .  S
C126       C3656   1.479       .  S
O127        V135   1.907       .  S
O127        C137   1.268       .  A
O128        V135   1.905       .  S
O128        C138   1.267       .  A
O129        V135   1.879       .  S
O129        C139   1.259       .  A
O130        V135   1.880       .  S
O130        C140   1.260       .  A
O131        V136   1.916       .  S
O131        C140   1.269       .  A
O132        V136   1.910       .  S
O132        C139   1.269       .  A
O133        V136   1.893       .  S
O133        C138   1.262       .  A
O134        V136   1.898       .  S
O134        C137   1.263       .  A
V135        V136   2.085       .  T
C137       C3628   1.492       .  S
C138       C3673   1.484       .  S
C139       C3614   1.481       .  S
C140       C3642   1.482       .  S
O141        V149   1.917       .  S
O141        C151   1.270       .  A
O142        V149   1.918       .  S
O142        C152   1.269       .  A
O143        V149   1.877       .  S
O143        C153   1.259       .  A
O144        V149   1.881       .  S
O144        C154   1.259   1_455  A
O145        V150   1.917   1_655  S
O145        C154   1.270       .  A
O146        V150   1.914       .  S
O146        C153   1.269       .  A
O147        V150   1.882       .  S
O147        C152   1.259       .  A
O148        V150   1.888       .  S
O148        C151   1.261       .  A
V149        V150   2.085       .  T
C151       C3995   1.484       .  S
C152       C3600   1.476       .  S
C153       C3589   1.480       .  S
C154       C3771   1.488       .  S
O155        V163   1.913       .  S
O155        C165   1.268       .  A
O156        V163   1.910       .  S
O156        C166   1.269       .  A
O157        V163   1.886       .  S
O157        C167   1.261       .  A
O158        V163   1.884       .  S
O158        C168   1.260       .  A
O159        V164   1.906       .  S
O159        C168   1.269       .  A
O160        V164   1.915       .  S
O160        C167   1.268       .  A
O161        V164   1.890       .  S
O161        C166   1.260       .  A
O162        V164   1.900       .  S
O162        C165   1.265       .  A
V163        V164   2.083       .  T
C165       C3575   1.496       .  S
C166       C3645   1.476       .  S
C167       C3603   1.477       .  S
C168       C3558   1.485       .  S
O169        V177   1.911       .  S
O169        C179   1.268       .  A
O170        V177   1.908       .  S
O170        C180   1.267       .  A
O171        V177   1.878       .  S
O171        C181   1.258       .  A
O172        V177   1.874       .  S
O172        C182   1.258       .  A
O173        V178   1.905       .  S
O173        C182   1.268       .  A
O174        V178   1.909       .  S
O174        C181   1.266       .  A
O175        V178   1.892       .  S
O175        C180   1.261       .  A
O176        V178   1.895       .  S
O176        C179   1.264       .  A
V177        V178   2.087       .  T
C179       C3516   1.493       .  S
C180       C3544   1.474       .  S
C181       C3530   1.464       .  S
C182       C3502   1.475       .  S
O183        V191   1.911       .  S
O183        C193   1.270       .  A
O184        V191   1.909       .  S
O184        C194   1.268       .  A
O185        V191   1.875       .  S
O185        C195   1.257       .  A
O186        V191   1.879       .  S
O186        C196   1.259       .  A
O187        V192   1.915       .  S
O187        C196   1.269       .  A
O188        V192   1.914       .  S
O188        C195   1.270       .  A
O189        V192   1.882       .  S
O189        C194   1.260       .  A
O190        V192   1.886       .  S
O190        C193   1.260       .  A
V191        V192   2.083       .  T
C193       C3869   1.490   1_556  S
C194       C3533   1.485       .  S
C195       C3474   1.484       .  S
C196       C3488   1.480       .  S
O197        V205   1.911       .  S
O197        C207   1.269   1_556  A
O198        V205   1.909       .  S
O198        C208   1.269       .  A
O199        V205   1.879   1_554  S
O199        C209   1.259       .  A
O200        V205   1.878       .  S
O200        C210   1.259       .  A
O201        V206   1.904       .  S
O201        C210   1.267       .  A
O202        V206   1.912   1_554  S
O202        C209   1.267       .  A
O203        V206   1.885       .  S
O203        C208   1.259       .  A
O204        V206   1.895   1_554  S
O204        C207   1.262       .  A
V205        V206   2.083       .  T
C207       C3446   1.492       .  S
C208       C3491   1.476       .  S
C209       C3463   1.471       .  S
C210       C3432   1.475       .  S
O211        V219   1.912       .  S
O211        C221   1.269       .  A
O212        V219   1.914       .  S
O212        C222   1.268       .  A
O213        V219   1.880       .  S
O213        C223   1.258       .  A
O214        V219   1.885       .  S
O214        C224   1.261       .  A
O215        V220   1.910       .  S
O215        C224   1.268       .  A
O216        V220   1.907       .  S
O216        C223   1.268       .  A
O217        V220   1.883       .  S
O217        C222   1.260       .  A
O218        V220   1.891       .  S
O218        C221   1.262       .  A
V219        V220   2.085       .  T
C221       C3407   1.493       .  S
C222       C3460   1.475       .  S
C223       C3390   1.477       .  S
C224       C3418   1.483       .  S
O225        V233   1.910       .  S
O225        C235   1.268       .  A
O226        V233   1.912       .  S
O226        C236   1.268       .  A
O227        V233   1.878       .  S
O227        C237   1.258       .  A
O228        V233   1.884       .  S
O228        C238   1.259   1_554  A
O229        V234   1.913   1_556  S
O229        C238   1.268       .  A
O230        V234   1.912       .  S
O230        C237   1.268       .  A
O231        V234   1.894       .  S
O231        C236   1.262       .  A
O232        V234   1.897       .  S
O232        C235   1.263       .  A
V233        V234   2.086       .  T
C235       C3365   1.490       .  S
C236       C3379   1.483       .  S
C237       C3351   1.470       .  S
C238       C3547   1.471       .  S
O239        V247   1.910       .  S
O239        C249   1.268       .  A
O240        V247   1.907       .  S
O240        C250   1.268       .  A
O241        V247   1.887       .  S
O241        C251   1.260       .  A
O242        V247   1.887       .  S
O242        C252   1.261       .  A
O243        V248   1.908       .  S
O243        C252   1.267       .  A
O244        V248   1.915       .  S
O244        C251   1.268       .  A
O245        V248   1.893       .  S
O245        C250   1.261       .  A
O246        V248   1.900       .  S
O246        C249   1.265       .  A
V247        V248   2.085       .  T
C249       C3911   1.489       .  S
C250       C3421   1.479       .  S
C251       C3376   1.475       .  S
C252       C3334   1.477       .  S
O253        V261   1.918       .  S
O253        C263   1.270       .  A
O254        V261   1.912       .  S
O254        C264   1.268       .  A
O255        V261   1.886       .  S
O255        C265   1.261       .  A
O256        V261   1.883       .  S
O256        C266   1.259       .  A
O257        V262   1.908       .  S
O257        C266   1.269       .  A
O258        V262   1.915       .  S
O258        C265   1.268       .  A
O259        V262   1.887       .  S
O259        C264   1.260       .  A
O260        V262   1.889       .  S
O260        C263   1.262       .  A
V261        V262   2.085       .  T
C263       C3292   1.493       .  S
C264       C3323   1.476       .  S
C265       C3309   1.477       .  S
C266       C3281   1.483       .  S
O267        V275   1.911       .  S
O267        C277   1.268       .  A
O268        V275   1.908       .  S
O268        C278   1.268       .  A
O269        V275   1.878       .  S
O269        C279   1.259       .  A
O270        V275   1.881       .  S
O270        C280   1.258       .  A
O271        V276   1.918       .  S
O271        C280   1.269       .  A
O272        V276   1.912       .  S
O272        C279   1.267       .  A
O273        V276   1.894       .  S
O273        C278   1.263       .  A
O274        V276   1.894       .  S
O274        C277   1.263       .  A
V275        V276   2.086       .  T
C277       C3404   1.484       .  S
C278       C3306   1.489       .  S
C279       C3250   1.472       .  S
C280       C3267   1.477       .  S
O281        V289   1.907       .  S
O281        C291   1.268       .  A
O282        V289   1.907       .  S
O282        C292   1.269       .  A
O283        V289   1.875       .  S
O283        C293   1.258       .  A
O284        V289   1.875       .  S
O284        C294   1.258       .  A
O285        V290   1.909       .  S
O285        C294   1.268       .  A
O286        V290   1.914       .  S
O286        C293   1.267       .  A
O287        V290   1.895       .  S
O287        C292   1.262       .  A
O288        V290   1.901       .  S
O288        C291   1.264       .  A
V289        V290   2.084       .  T
C291       C3743   1.494       .  S
C292       C3264   1.487       .  S
C293       C3236   1.467       .  S
C294       C3222   1.475       .  S
O295        V303   1.921       .  S
O295        C305   1.271       .  A
O296        V303   1.917       .  S
O296        C306   1.269       .  A
O297        V303   1.879       .  S
O297        C307   1.260       .  A
O298        V303   1.886       .  S
O298        C308   1.261       .  A
O299        V304   1.912       .  S
O299        C308   1.268       .  A
O300        V304   1.905       .  S
O300        C307   1.267       .  A
O301        V304   1.875       .  S
O301        C306   1.257       .  A
O302        V304   1.884       .  S
O302        C305   1.260       .  A
V303        V304   2.085       .  T
C305       C3194   1.491       .  S
C306       C3239   1.473       .  S
C307       C3180   1.480       .  S
C308       C3208   1.481       .  S
O309        V317   1.912       .  S
O309        C319   1.269       .  A
O310        V317   1.908       .  S
O310        C320   1.268       .  A
O311        V317   1.884       .  S
O311        C321   1.261       .  A
O312        V317   1.887       .  S
O312        C322   1.260       .  A
O313        V318   1.903       .  S
O313        C322   1.267       .  A
O314        V318   1.914       .  S
O314        C321   1.268       .  A
O315        V318   1.891       .  S
O315        C320   1.260       .  A
O316        V318   1.894       .  S
O316        C319   1.263       .  A
V317        V318   2.085       .  T
C319       C3519   1.491       .  S
C320       C3211   1.478       .  S
C321       C3166   1.480       .  S
C322       C3152   1.481       .  S
O323        V331   1.907       .  S
O323        C333   1.268       .  A
O324        V331   1.905       .  S
O324        C334   1.268       .  A
O325        V331   1.881       .  S
O325        C335   1.258       .  A
O326        V331   1.881       .  S
O326        C336   1.259       .  A
O327        V332   1.910       .  S
O327        C336   1.267       .  A
O328        V332   1.903       .  S
O328        C335   1.267       .  A
O329        V332   1.898       .  S
O329        C334   1.263       .  A
O330        V332   1.900       .  S
O330        C333   1.264       .  A
V331        V332   2.083       .  T
C333       C3631   1.494       .  S
C334       C3169   1.483       .  S
C335       C3138   1.474       .  S
C336       C3320   1.469       .  S
O337        V345   1.910       .  S
O337        C347   1.268       .  A
O338        V345   1.904       .  S
O338        C348   1.267       .  A
O339        V345   1.884       .  S
O339        C349   1.259       .  A
O340        V345   1.881       .  S
O340        C350   1.260       .  A
O341        V346   1.912       .  S
O341        C350   1.269       .  A
O342        V346   1.918       .  S
O342        C349   1.268       .  A
O343        V346   1.898       .  S
O343        C348   1.262       .  A
O344        V346   1.901       .  S
O344        C347   1.265       .  A
V345        V346   2.085       .  T
C347       C3295   1.497       .  S
C348       C3124   1.481       .  S
C349       C3110   1.472       .  S
C350       C3099   1.485       .  S
O351        V359   1.907   1_545  S
O351        C361   1.269   1_545  A
O352        V359   1.912       .  S
O352        C362   1.269       .  A
O353        V359   1.878       .  S
O353        C363   1.258       .  A
O354        V359   1.879       .  S
O354        C364   1.259       .  A
O355        V360   1.915       .  S
O355        C364   1.268       .  A
O356        V360   1.910       .  S
O356        C363   1.269       .  A
O357        V360   1.887       .  S
O357        C362   1.261       .  A
O358        V360   1.893       .  S
O358        C361   1.262       .  A
V359        V360   2.084       .  T
C361       C3071   1.490   1_565  S
C362       C3113   1.489       .  S
C363       C3054   1.478       .  S
C364       C3082   1.476       .  S
O365        V373   1.913       .  S
O365        C375   1.270       .  A
O366        V373   1.909       .  S
O366        C376   1.268       .  A
O367        V373   1.883       .  S
O367        C377   1.260       .  A
O368        V373   1.883       .  S
O368        C378   1.260       .  A
O369        V374   1.921       .  S
O369        C378   1.269       .  A
O370        V374   1.912       .  S
O370        C377   1.269       .  A
O371        V374   1.886       .  S
O371        C376   1.261       .  A
O372        V374   1.894       .  S
O372        C375   1.262       .  A
V373        V374   2.084       .  T
C375       C3197   1.495       .  S
C376       C3040   1.480       .  S
C377       C3015   1.486       .  S
C378       C3026   1.482       .  S
O379        V387   1.919   1_545  S
O379        C389   1.271       .  A
O380        V387   1.913       .  S
O380        C390   1.268       .  A
O381        V387   1.882   1_545  S
O381        C391   1.260       .  A
O382        V387   1.880       .  S
O382        C392   1.258       .  A
O383        V388   1.913   1_565  S
O383        C392   1.270       .  A
O384        V388   1.914       .  S
O384        C391   1.268       .  A
O385        V388   1.883   1_565  S
O385        C390   1.259       .  A
O386        V388   1.890       .  S
O386        C389   1.261       .  A
V387        V388   2.085   1_565  T
C389       C2998   1.497       .  S
C390       C3085   1.468       .  S
C391       C3043   1.479       .  S
C392       C2984   1.485       .  S
O393        V401   1.914       .  S
O393        C403   1.269       .  A
O394        V401   1.911       .  S
O394        C404   1.268       .  A
O395        V401   1.877       .  S
O395        C405   1.260       .  A
O396        V401   1.875       .  S
O396        C406   1.257       .  A
O397        V402   1.906       .  S
O397        C406   1.268       .  A
O398        V402   1.916       .  S
O398        C405   1.269       .  A
O399        V402   1.894       .  S
O399        C404   1.261       .  A
O400        V402   1.897       .  S
O400        C403   1.264       .  A
V401        V402   2.085       .  T
C403       C2956   1.490       .  S
C404       C3029   1.484       .  S
C405       C2973   1.483       .  S
C406       C2942   1.478       .  S
O407        V415   1.908       .  S
O407        C417   1.268       .  A
O408        V415   1.908       .  S
O408        C418   1.267       .  A
O409        V415   1.879       .  S
O409        C419   1.260       .  A
O410        V415   1.878       .  S
O410        C420   1.259   1_545  A
O411        V416   1.923   1_565  S
O411        C420   1.270       .  A
O412        V416   1.913       .  S
O412        C419   1.269       .  A
O413        V416   1.891       .  S
O413        C418   1.261       .  A
O414        V416   1.896       .  S
O414        C417   1.262       .  A
V415        V416   2.086       .  T
C417       C2928   1.484       .  S
C418       C2970   1.473       .  S
C419       C2914   1.487       .  S
C420       C3127   1.481       .  S
O421        V429   1.912       .  S
O421        C431   1.268       .  A
O422        V429   1.909       .  S
O422        C432   1.267       .  A
O423        V429   1.874       .  S
O423        C433   1.259       .  A
O424        V429   1.881       .  S
O424        C434   1.258   1_554  A
O425        V430   1.915   1_556  S
O425        C434   1.269       .  A
O426        V430   1.913       .  S
O426        C433   1.268       .  A
O427        V430   1.889       .  S
O427        C432   1.260       .  A
O428        V430   1.892       .  S
O428        C431   1.263       .  A
V429        V430   2.086       .  T
C431       C3362   1.493       .  S
C432       C2900   1.470       .  S
C433       C2875   1.483       .  S
C434       C2889   1.478       .  S
O435        V443   1.904       .  S
O435        C445   1.267       .  A
O436        V443   1.905       .  S
O436        C446   1.268       .  A
O437        V443   1.879       .  S
O437        C447   1.260   1_545  A
O438        V443   1.881       .  S
O438        C448   1.259       .  A
O439        V444   1.903       .  S
O439        C448   1.268       .  A
O440        V444   1.913   1_565  S
O440        C447   1.268       .  A
O441        V444   1.887       .  S
O441        C446   1.260       .  A
O442        V444   1.894       .  S
O442        C445   1.262       .  A
V443        V444   2.085       .  T
C445       C2847   1.483       .  S
C446       C2858   1.475       .  S
C447       C2903   1.478       .  S
C448       C2830   1.477       .  S
O449        V457   1.912   1_545  S
O449        C459   1.269   1_545  A
O450        V457   1.907       .  S
O450        C460   1.269       .  A
O451        V457   1.877       .  S
O451        C461   1.259       .  A
O452        V457   1.877       .  S
O452        C462   1.258       .  A
O453        V458   1.910       .  S
O453        C462   1.269       .  A
O454        V458   1.916       .  S
O454        C461   1.268       .  A
O455        V458   1.893       .  S
O455        C460   1.261       .  A
O456        V458   1.898       .  S
O456        C459   1.264       .  A
V457        V458   2.085       .  T
C459       C2959   1.497   1_565  S
C460       C2886   1.485       .  S
C461       C2816   1.472       .  S
C462       C2805   1.478       .  S
O463        V471   1.916       .  S
O463        C473   1.270       .  A
O464        V471   1.915       .  S
O464        C474   1.269       .  A
O465        V471   1.873       .  S
O465        C475   1.256       .  A
O466        V471   1.874       .  S
O466        C476   1.259       .  A
O467        V472   1.914       .  S
O467        C476   1.268       .  A
O468        V472   1.910       .  S
O468        C475   1.269       .  A
O469        V472   1.879       .  S
O469        C474   1.258       .  A
O470        V472   1.883       .  S
O470        C473   1.260       .  A
V471        V472   2.086       .  T
C473       C3068   1.485       .  S
C474       C2788   1.473       .  S
C475       C2774   1.476       .  S
C476       C2861   1.477       .  S
O477        V485   1.913       .  S
O477        C487   1.270       .  A
O478        V485   1.910       .  S
O478        C488   1.269       .  A
O479        V485   1.881   1_554  S
O479        C489   1.259       .  A
O480        V485   1.882       .  S
O480        C490   1.259       .  A
O481        V486   1.905       .  S
O481        C490   1.267       .  A
O482        V486   1.912   1_554  S
O482        C489   1.268       .  A
O483        V486   1.886       .  S
O483        C488   1.260       .  A
O484        V486   1.891   1_554  S
O484        C487   1.262   1_554  A
V485        V486   2.081       .  T
C487       C3449   1.492   1_556  S
C488       C2760   1.473       .  S
C489       C2791   1.472       .  S
C490       C2746   1.470       .  S
O491        V499   1.915   1_554  S
O491        C501   1.270   1_564  A
O492        V499   1.912       .  S
O492        C502   1.269       .  A
O493        V499   1.873       .  S
O493        C503   1.257       .  A
O494        V499   1.877   1_545  S
O494        C504   1.258       .  A
O495        V500   1.914       .  S
O495        C504   1.269       .  A
O496        V500   1.907   1_565  S
O496        C503   1.268       .  A
O497        V500   1.888   1_565  S
O497        C502   1.261       .  A
O498        V500   1.892       .  S
O498        C501   1.262       .  A
V499        V500   2.085   1_565  T
C501       C2732   1.492   1_556  S
C502       C2819   1.486       .  S
C503       C2721   1.469       .  S
C504       C2763   1.479       .  S
O505        V513   1.907       .  S
O505        C515   1.267       .  A
O506        V513   1.903       .  S
O506        C516   1.267       .  A
O507        V513   1.881       .  S
O507        C517   1.260   1_554  A
O508        V513   1.880       .  S
O508        C518   1.258       .  A
O509        V514   1.905       .  S
O509        C518   1.268       .  A
O510        V514   1.912   1_556  S
O510        C517   1.267       .  A
O511        V514   1.896       .  S
O511        C516   1.262       .  A
O512        V514   1.896       .  S
O512        C515   1.264       .  A
V513        V514   2.085       .  T
C515       C3953   1.491       .  S
C516       C2707   1.478       .  S
C517       C2690   1.476       .  S
C518       C2679   1.482       .  S
O519        V527   1.912   1_545  S
O519        C529   1.269       .  A
O520        V527   1.910       .  S
O520        C530   1.268       .  A
O521        V527   1.874       .  S
O521        C531   1.257       .  A
O522        V527   1.874   1_545  S
O522        C532   1.258       .  A
O523        V528   1.920       .  S
O523        C532   1.269       .  A
O524        V528   1.913   1_565  S
O524        C531   1.270       .  A
O525        V528   1.895   1_565  S
O525        C530   1.262       .  A
O526        V528   1.896       .  S
O526        C529   1.263       .  A
V527        V528   2.084   1_565  T
C529       C2735   1.491       .  S
C530       C2662   1.483       .  S
C531       C2648   1.483       .  S
C532       C2704   1.475       .  S
O533        V541   1.923   1_545  S
O533        C543   1.271       .  A
O534        V541   1.918       .  S
O534        C544   1.270       .  A
O535        V541   1.884       .  S
O535        C545   1.261   1_455  A
O536        V541   1.876       .  S
O536        C546   1.257       .  A
O537        V542   1.912       .  S
O537        C546   1.270       .  A
O538        V542   1.918   1_655  S
O538        C545   1.269       .  A
O539        V542   1.882       .  S
O539        C544   1.258       .  A
O540        V542   1.882       .  S
O540        C543   1.261   1_565  A
V541        V542   2.085       .  T
C543       C2623   1.495       .  S
C544       C2634   1.477       .  S
C545       C2665   1.484       .  S
C546       C2606   1.482       .  S
O547        V555   1.909       .  S
O547        C557   1.269   1_556  A
O548        V555   1.908       .  S
O548        C558   1.267       .  A
O549        V555   1.889       .  S
O549        C559   1.260       .  A
O550        V555   1.884   1_554  S
O550        C560   1.261       .  A
O551        V556   1.912   1_554  S
O551        C560   1.267       .  A
O552        V556   1.903       .  S
O552        C559   1.267       .  A
O553        V556   1.900       .  S
O553        C558   1.263       .  A
O554        V556   1.905   1_554  S
O554        C557   1.265       .  A
V555        V556   2.081       .  T
C557       C3799   1.499       .  S
C558       C2592   1.483       .  S
C559       C2581   1.470       .  S
C560       C2637   1.470       .  S
O561        V569   1.918       .  S
O561        C571   1.270       .  A
O562        V569   1.918       .  S
O562        C572   1.269       .  A
O563        V569   1.884       .  S
O563        C573   1.261       .  A
O564        V569   1.881       .  S
O564        C574   1.259       .  A
O565        V570   1.919       .  S
O565        C574   1.271       .  A
O566        V570   1.921       .  S
O566        C573   1.271       .  A
O567        V570   1.877       .  S
O567        C572   1.258       .  A
O568        V570   1.881       .  S
O568        C571   1.260       .  A
V569        V570   2.084       .  T
C571       C2844   1.489   1_556  S
C572       C2564   1.472       .  S
C573       C2595   1.493   1_545  S
C574       C2550   1.489       .  S
O575        V583   1.901       .  S
O575        C585   1.267       .  A
O576        V583   1.902       .  S
O576        C586   1.267       .  A
O577        V583   1.876       .  S
O577        C587   1.258       .  A
O578        V583   1.876   1_455  S
O578        C588   1.259       .  A
O579        V584   1.915   1_455  S
O579        C588   1.268       .  A
O580        V584   1.910       .  S
O580        C587   1.269       .  A
O581        V584   1.894       .  S
O581        C586   1.262       .  A
O582        V584   1.901       .  S
O582        C585   1.264       .  A
V583        V584   2.083       .  T
C585       C2539   1.490       .  S
C586       C2693   1.482       .  S
C587       C2522   1.482       .  S
C588       C2567   1.471       .  S
O589        V597   1.916       .  S
O589        C599   1.271       .  A
O590        V597   1.916       .  S
O590        C600   1.271       .  A
O591        V597   1.881       .  S
O591        C601   1.259   1_455  A
O592        V597   1.882       .  S
O592        C602   1.258       .  A
O593        V598   1.912       .  S
O593        C602   1.269       .  A
O594        V598   1.919   1_655  S
O594        C601   1.269       .  A
O595        V598   1.884       .  S
O595        C600   1.259       .  A
O596        V598   1.893       .  S
O596        C599   1.262       .  A
V597        V598   2.084       .  T
C599       C2620   1.489       .  S
C600       C2511   1.487       .  S
C601       C2494   1.473       .  S
C602       C2480   1.473       .  S
O603        V611   1.917       .  S
O603        C613   1.270       .  A
O604        V611   1.917       .  S
O604        C614   1.269       .  A
O605        V611   1.886       .  S
O605        C615   1.260       .  A
O606        V611   1.889       .  S
O606        C616   1.262       .  A
O607        V612   1.919       .  S
O607        C616   1.269       .  A
O608        V612   1.915       .  S
O608        C615   1.270       .  A
O609        V612   1.885       .  S
O609        C614   1.261       .  A
O610        V612   1.889       .  S
O610        C613   1.261       .  A
V611        V612   2.083       .  T
C613       C2931   1.495       .  S
C614       C2497   1.483       .  S
C615       C2452   1.484       .  S
C616       C2469   1.494   1_545  S
O617        V625   1.912       .  S
O617        C627   1.269       .  A
O618        V625   1.912       .  S
O618        C628   1.269       .  A
O619        V625   1.882       .  S
O619        C629   1.260       .  A
O620        V625   1.884       .  S
O620        C630   1.260       .  A
O621        V626   1.904       .  S
O621        C630   1.267       .  A
O622        V626   1.912       .  S
O622        C629   1.267       .  A
O623        V626   1.898       .  S
O623        C628   1.263       .  A
O624        V626   1.903       .  S
O624        C627   1.265       .  A
V625        V626   2.083       .  T
C627       C3572   1.497       .  S
C628       C2466   1.484       .  S
C629       C2438   1.470       .  S
C630       C2427   1.473       .  S
O631        V639   1.907       .  S
O631        C641   1.267       .  A
O632        V639   1.904       .  S
O632        C642   1.267       .  A
O633        V639   1.880       .  S
O633        C643   1.259       .  A
O634        V639   1.884       .  S
O634        C644   1.260       .  A
O635        V640   1.916       .  S
O635        C644   1.269       .  A
O636        V640   1.909       .  S
O636        C643   1.268       .  A
O637        V640   1.896       .  S
O637        C642   1.262       .  A
O638        V640   1.900       .  S
O638        C641   1.264       .  A
V639        V640   2.085       .  T
C641       C3701   1.490       .  S
C642       C2413   1.482       .  S
C643       C2396   1.480       .  S
C644       C2508   1.480       .  S
O645        V653   1.913   1_545  S
O645        C655   1.269       .  A
O646        V653   1.913       .  S
O646        C656   1.270       .  A
O647        V653   1.879   1_545  S
O647        C657   1.258       .  A
O648        V653   1.875       .  S
O648        C658   1.259       .  A
O649        V654   1.911   1_565  S
O649        C658   1.268       .  A
O650        V654   1.918       .  S
O650        C657   1.269       .  A
O651        V654   1.889   1_565  S
O651        C656   1.261       .  A
O652        V654   1.896       .  S
O652        C655   1.262       .  A
V653        V654   2.085   1_565  T
C655       C3001   1.489       .  S
C656       C2382   1.487       .  S
C657       C2410   1.475       .  S
C658       C2368   1.482       .  S
O659        V667   1.915   1_545  S
O659        C669   1.269   1_545  A
O660        V667   1.910       .  S
O660        C670   1.267       .  A
O661        V667   1.882       .  S
O661        C671   1.259       .  A
O662        V667   1.888   1_455  S
O662        C672   1.260       .  A
O663        V668   1.913   1_455  S
O663        C672   1.268       .  A
O664        V668   1.911       .  S
O664        C671   1.269       .  A
O665        V668   1.886       .  S
O665        C670   1.261       .  A
O666        V668   1.888   1_455  S
O666        C669   1.261   1_455  A
V667        V668   2.084       .  T
C669       C2536   1.490   1_565  S
C670       C2441   1.477       .  S
C671       C2354   1.484       .  S
C672       C2385   1.479       .  S
O673        V681   1.908       .  S
O673        C683   1.269       .  A
O674        V681   1.907       .  S
O674        C684   1.268       .  A
O675        V681   1.872       .  S
O675        C685   1.258       .  A
O676        V681   1.872       .  S
O676        C686   1.257       .  A
O677        V682   1.909       .  S
O677        C686   1.269       .  A
O678        V682   1.917       .  S
O678        C685   1.269       .  A
O679        V682   1.885       .  S
O679        C684   1.259       .  A
O680        V682   1.889       .  S
O680        C683   1.260       .  A
V681        V682   2.086       .  T
C683       C2312   1.486       .  S
C684       C2340   1.471       .  S
C685       C2326   1.472       .  S
C686       C3505   1.475       .  S
O687        V695   1.902       .  S
O687        C697   1.267       .  A
O688        V695   1.900       .  S
O688        C698   1.266       .  A
O689        V695   1.890       .  S
O689        C699   1.261       .  A
O690        V695   1.890       .  S
O690        C700   1.261       .  A
O691        V696   1.911       .  S
O691        C700   1.267       .  A
O692        V696   1.903       .  S
O692        C699   1.267       .  A
O693        V696   1.894       .  S
O693        C698   1.262       .  A
O694        V696   1.900       .  S
O694        C697   1.264       .  A
V695        V696   2.086       .  T
C697       C2284   1.487       .  S
C698       C2329   1.479       .  S
C699       C3785   1.480       .  S
C700       C2298   1.474       .  S
O701        V709   1.906       .  S
O701        C711   1.268       .  A
O702        V709   1.905       .  S
O702        C712   1.267       .  A
O703        V709   1.885       .  S
O703        C713   1.260       .  A
O704        V709   1.887       .  S
O704        C714   1.261       .  A
O705        V710   1.910       .  S
O705        C714   1.269       .  A
O706        V710   1.917       .  S
O706        C713   1.269       .  A
O707        V710   1.889       .  S
O707        C712   1.261       .  A
O708        V710   1.900       .  S
O708        C711   1.264       .  A
V709        V710   2.084       .  T
C711       C2242   1.488       .  S
C712       C2270   1.476       .  S
C713       C2256   1.478       .  S
C714       C3096   1.484       .  S
O715        V723   1.920       .  S
O715        C725   1.270       .  A
O716        V723   1.920       .  S
O716        C726   1.270       .  A
O717        V723   1.871       .  S
O717        C727   1.257       .  A
O718        V723   1.876       .  S
O718        C728   1.258       .  A
O719        V724   1.913       .  S
O719        C728   1.268       .  A
O720        V724   1.908       .  S
O720        C727   1.269       .  A
O721        V724   1.887       .  S
O721        C726   1.260       .  A
O722        V724   1.890       .  S
O722        C725   1.261       .  A
V723        V724   2.085       .  T
C725       C2228   1.489       .  S
C726       C2259   1.482       .  S
C727       C2718   1.477       .  S
C728       C2343   1.478       .  S
O729        V737   1.912       .  S
O729        C739   1.269       .  A
O730        V737   1.910       .  S
O730        C740   1.268       .  A
O731        V737   1.873       .  S
O731        C741   1.258       .  A
O732        V737   1.873       .  S
O732        C742   1.257       .  A
O733        V738   1.910       .  S
O733        C742   1.269       .  A
O734        V738   1.911       .  S
O734        C741   1.267       .  A
O735        V738   1.891       .  S
O735        C740   1.262       .  A
O736        V738   1.894       .  S
O736        C739   1.263       .  A
V737        V738   2.085       .  T
C739       C2200   1.494       .  S
C740       C2301   1.478       .  S
C741       C2217   1.464       .  S
C742       C3726   1.480       .  S
O743        V751   1.911       .  S
O743        C753   1.268       .  A
O744        V751   1.904       .  S
O744        C754   1.267       .  A
O745        V751   1.884       .  S
O745        C755   1.260       .  A
O746        V751   1.885       .  S
O746        C756   1.260       .  A
O747        V752   1.910       .  S
O747        C756   1.268       .  A
O748        V752   1.908       .  S
O748        C755   1.267       .  A
O749        V752   1.883       .  S
O749        C754   1.260       .  A
O750        V752   1.882       .  S
O750        C753   1.261       .  A
V751        V752   2.086       .  T
C753       C2186   1.485       .  S
C754       C2214   1.477       .  S
C755       C2357   1.471       .  S
C756       C2273   1.478       .  S
O757        V765   1.909       .  S
O757        C767   1.268       .  A
O758        V765   1.909       .  S
O758        C768   1.269       .  A
O759        V765   1.879       .  S
O759        C769   1.258       .  A
O760        V765   1.881       .  S
O760        C770   1.259       .  A
O761        V766   1.904       .  S
O761        C770   1.267       .  A
O762        V766   1.912       .  S
O762        C769   1.267       .  A
O763        V766   1.888       .  S
O763        C768   1.261       .  A
O764        V766   1.895       .  S
O764        C767   1.262       .  A
V765        V766   2.087       .  T
C767       C2144   1.480       .  S
C768       C2172   1.483       .  S
C769       C2161   1.465       .  S
C770       C2371   1.473       .  S
O771        V779   1.919       .  S
O771        C781   1.271       .  A
O772        V779   1.912       .  S
O772        C782   1.269       .  A
O773        V779   1.881       .  S
O773        C783   1.259       .  A
O774        V779   1.882       .  S
O774        C784   1.260       .  A
O775        V780   1.916       .  S
O775        C784   1.268       .  A
O776        V780   1.910       .  S
O776        C783   1.269       .  A
O777        V780   1.885       .  S
O777        C782   1.260       .  A
O778        V780   1.893       .  S
O778        C781   1.263       .  A
V779        V780   2.085       .  T
C781       C2116   1.497       .  S
C782       C2158   1.480       .  S
C783       C3586   1.484       .  S
C784       C2130   1.475       .  S
O785        V793   1.911       .  S
O785        C795   1.268       .  A
O786        V793   1.908       .  S
O786        C796   1.269       .  A
O787        V793   1.889       .  S
O787        C797   1.261       .  A
O788        V793   1.887       .  S
O788        C798   1.260       .  A
O789        V794   1.908       .  S
O789        C798   1.266       .  A
O790        V794   1.902       .  S
O790        C797   1.267       .  A
O791        V794   1.891       .  S
O791        C796   1.261       .  A
O792        V794   1.897       .  S
O792        C795   1.263       .  A
V793        V794   2.084       .  T
C795       C2074   1.487       .  S
C796       C2102   1.482       .  S
C797       C3477   1.476       .  S
C798       C2088   1.468       .  S
O799        V807   1.915       .  S
O799        C809   1.269       .  A
O800        V807   1.912       .  S
O800        C810   1.269       .  A
O801        V807   1.886       .  S
O801        C811   1.261       .  A
O802        V807   1.883       .  S
O802        C812   1.260       .  A
O803        V808   1.906       .  S
O803        C812   1.268       .  A
O804        V808   1.912       .  S
O804        C811   1.267       .  A
O805        V808   1.890       .  S
O805        C810   1.262       .  A
O806        V808   1.891       .  S
O806        C809   1.263       .  A
V807        V808   2.085       .  T
C809       C2245   1.493       .  S
C810       C2133   1.485       .  S
C811       C2105   1.477       .  S
C812       C3278   1.479       .  S
O813        V821   1.912       .  S
O813        C823   1.269       .  A
O814        V821   1.906       .  S
O814        C824   1.269       .  A
O815        V821   1.881       .  S
O815        C825   1.261       .  A
O816        V821   1.884       .  S
O816        C826   1.259       .  A
O817        V822   1.911       .  S
O817        C826   1.268       .  A
O818        V822   1.909       .  S
O818        C825   1.267       .  A
O819        V822   1.890       .  S
O819        C824   1.260       .  A
O820        V822   1.890       .  S
O820        C823   1.262       .  A
V821        V822   2.084       .  T
C823       C2287   1.493       .  S
C824       C2060   1.485       .  S
C825       C2578   1.482       .  S
C826       C2175   1.478       .  S
O827        V835   1.914       .  S
O827        C837   1.269       .  A
O828        V835   1.911       .  S
O828        C838   1.268       .  A
O829        V835   1.880       .  S
O829        C839   1.259       .  A
O830        V835   1.875       .  S
O830        C840   1.259       .  A
O831        V836   1.911       .  S
O831        C840   1.268       .  A
O832        V836   1.913       .  S
O832        C839   1.267       .  A
O833        V836   1.887       .  S
O833        C838   1.260       .  A
O834        V836   1.888       .  S
O834        C837   1.262       .  A
V835        V836   2.085       .  T
C837       C2046   1.491       .  S
C838       C2091   1.475       .  S
C839       C2063   1.470       .  S
C840       C2802   1.482       .  S
O841        V849   1.914       .  S
O841        C851   1.269       .  A
O842        V849   1.912       .  S
O842        C852   1.269       .  A
O843        V849   1.884       .  S
O843        C853   1.259       .  A
O844        V849   1.881       .  S
O844        C854   1.258       .  A
O845        V850   1.910       .  S
O845        C854   1.269       .  A
O846        V850   1.913       .  S
O846        C853   1.267       .  A
O847        V850   1.890       .  S
O847        C852   1.261       .  A
O848        V850   1.895       .  S
O848        C851   1.263       .  A
V849        V850   2.086       .  T
C851       C2007   1.493       .  S
C852       C2032   1.480       .  S
C853       C2021   1.468       .  S
C854       C3561   1.483       .  S
O855        V863   1.912       .  S
O855        C865   1.269       .  A
O856        V863   1.914       .  S
O856        C866   1.269       .  A
O857        V863   1.890       .  S
O857        C867   1.261       .  A
O858        V863   1.887       .  S
O858        C868   1.260       .  A
O859        V864   1.910       .  S
O859        C868   1.266       .  A
O860        V864   1.902       .  S
O860        C867   1.267       .  A
O861        V864   1.890       .  S
O861        C866   1.262       .  A
O862        V864   1.900       .  S
O862        C865   1.264       .  A
V863        V864   2.085       .  T
C865       C1976   1.490       .  S
C866       C1990   1.492       .  S
C867       C3253   1.486       .  S
C868       C2035   1.470       .  S
O869        V877   1.913       .  S
O869        C879   1.270       .  A
O870        V877   1.912       .  S
O870        C880   1.269       .  A
O871        V877   1.868       .  S
O871        C881   1.257       .  A
O872        V877   1.871       .  S
O872        C882   1.258       .  A
O873        V878   1.914       .  S
O873        C882   1.268       .  A
O874        V878   1.909       .  S
O874        C881   1.268       .  A
O875        V878   1.890       .  S
O875        C880   1.262       .  A
O876        V878   1.895       .  S
O876        C879   1.263       .  A
V877        V878   2.085       .  T
C879       C2077   1.496       .  S
C880       C2018   1.486       .  S
C881       C3855   1.475       .  S
C882       C1962   1.474       .  S
O883        V891   1.917       .  S
O883        C893   1.270       .  A
O884        V891   1.910       .  S
O884        C894   1.268       .  A
O885        V891   1.889       .  S
O885        C895   1.260       .  A
O886        V891   1.881       .  S
O886        C896   1.259       .  A
O887        V892   1.913       .  S
O887        C896   1.270       .  A
O888        V892   1.914       .  S
O888        C895   1.268       .  A
O889        V892   1.880       .  S
O889        C894   1.258       .  A
O890        V892   1.886       .  S
O890        C893   1.261       .  A
V891        V892   2.086       .  T
C893       C2147   1.493       .  S
C894       C1948   1.470       .  S
C895       C1993   1.477       .  S
C896       C2987   1.485       .  S
O897        V905   1.918       .  S
O897        C907   1.271       .  A
O898        V905   1.919       .  S
O898        C908   1.270       .  A
O899        V905   1.888       .  S
O899        C909   1.260       .  A
O900        V905   1.883       .  S
O900        C910   1.260       .  A
O901        V906   1.906       .  S
O901        C910   1.266       .  A
O902        V906   1.901       .  S
O902        C909   1.266       .  A
O903        V906   1.885       .  S
O903        C908   1.261       .  A
O904        V906   1.893       .  S
O904        C907   1.262       .  A
V905        V906   2.083       .  T
C907       C1920   1.490       .  S
C908       C1937   1.484       .  S
C909       C2872   1.472       .  S
C910       C1951   1.469       .  S
O911        V919   1.912       .  S
O911        C921   1.269       .  A
O912        V919   1.906       .  S
O912        C922   1.267       .  A
O913        V919   1.886       .  S
O913        C923   1.260       .  A
O914        V919   1.882       .  S
O914        C924   1.259       .  A
O915        V920   1.907       .  S
O915        C924   1.268       .  A
O916        V920   1.916       .  S
O916        C923   1.269       .  A
O917        V920   1.882       .  S
O917        C922   1.259       .  A
O918        V920   1.887       .  S
O918        C921   1.261       .  A
V919        V920   2.086       .  T
C921       C1906   1.482       .  S
C922       C1965   1.469       .  S
C923       C1934   1.484       .  S
C924       C2609   1.479       .  S
O925        V933   1.907       .  S
O925        C935   1.267       .  A
O926        V933   1.906       .  S
O926        C936   1.267       .  A
O927        V933   1.883       .  S
O927        C937   1.260       .  A
O928        V933   1.879       .  S
O928        C938   1.260       .  A
O929        V934   1.907       .  S
O929        C938   1.267       .  A
O930        V934   1.912       .  S
O930        C937   1.268       .  A
O931        V934   1.893       .  S
O931        C936   1.263       .  A
O932        V934   1.897       .  S
O932        C935   1.264       .  A
V933        V934   2.084       .  T
C935       C1864   1.496       .  S
C936       C1892   1.482       .  S
C937       C1881   1.479       .  S
C938       C2749   1.480       .  S
O939        V947   1.914       .  S
O939        C949   1.270       .  A
O940        V947   1.914       .  S
O940        C950   1.268       .  A
O941        V947   1.880       .  S
O941        C951   1.259       .  A
O942        V947   1.872       .  S
O942        C952   1.258       .  A
O943        V948   1.915       .  S
O943        C952   1.269       .  A
O944        V948   1.916       .  S
O944        C951   1.269       .  A
O945        V948   1.884       .  S
O945        C950   1.260       .  A
O946        V948   1.885       .  S
O946        C949   1.259       .  A
V947        V948   2.085       .  T
C949       C2315   1.492       .  S
C950       C1850   1.473       .  S
C951       C1836   1.479       .  S
C952       C3155   1.479       .  S
O953        V961   1.906       .  S
O953        C963   1.267       .  A
O954        V961   1.905       .  S
O954        C964   1.268       .  A
O955        V961   1.886       .  S
O955        C965   1.261       .  A
O956        V961   1.884       .  S
O956        C966   1.261       .  A
O957        V962   1.913       .  S
O957        C966   1.267       .  A
O958        V962   1.906       .  S
O958        C965   1.268       .  A
O959        V962   1.891       .  S
O959        C964   1.261       .  A
O960        V962   1.900       .  S
O960        C963   1.265       .  A
V961        V962   2.084       .  T
C963       C1822   1.491       .  S
C964       C1878   1.479       .  S
C965       C2917   1.482       .  S
C966       C1853   1.474       .  S
O967        V975   1.902       .  S
O967        C977   1.267       .  A
O968        V975   1.904       .  S
O968        C978   1.267       .  A
O969        V975   1.882       .  S
O969        C979   1.259       .  A
O970        V975   1.880       .  S
O970        C980   1.259       .  A
O971        V976   1.912       .  S
O971        C980   1.267       .  A
O972        V976   1.905       .  S
O972        C979   1.267       .  A
O973        V976   1.888       .  S
O973        C978   1.260       .  A
O974        V976   1.892       .  S
O974        C977   1.262       .  A
V975        V976   2.086       .  T
C977       C2189   1.481       .  S
C978       C1808   1.473       .  S
C979       C2525   1.472       .  S
C980       C1895   1.465       .  S
O981        V989   1.910       .  S
O981        C991   1.268       .  A
O982        V989   1.910       .  S
O982        C992   1.269       .  A
O983        V989   1.882       .  S
O983        C993   1.258       .  A
O984        V989   1.881       .  S
O984        C994   1.259       .  A
O985        V990   1.910       .  S
O985        C994   1.267       .  A
O986        V990   1.903       .  S
O986        C993   1.269       .  A
O987        V990   1.888       .  S
O987        C992   1.260       .  A
O988        V990   1.895       .  S
O988        C991   1.264       .  A
V989        V990   2.083       .  T
C991       C1780   1.491       .  S
C992       C1839   1.483       .  S
C993       C3687   1.479       .  S
C994       C1794   1.467       .  S
O995       V1003   1.916       .  S
O995       C1005   1.270       .  A
O996       V1003   1.913       .  S
O996       C1006   1.269       .  A
O997       V1003   1.880       .  S
O997       C1007   1.261       .  A
O998       V1003   1.878       .  S
O998       C1008   1.258       .  A
O999       V1004   1.911       .  S
O999       C1008   1.269       .  A
O1000      V1004   1.913       .  S
O1000      C1007   1.268       .  A
O1001      V1004   1.883       .  S
O1001      C1006   1.259       .  A
O1002      V1004   1.885       .  S
O1002      C1005   1.261       .  A
V1003      V1004   2.084       .  T
C1005      C1766   1.492       .  S
C1006      C1797   1.475       .  S
C1007      C1811   1.484       .  S
C1008      C3897   1.480       .  S
O1009      V1017   1.913       .  S
O1009      C1019   1.270       .  A
O1010      V1017   1.910       .  S
O1010      C1020   1.269       .  A
O1011      V1017   1.877       .  S
O1011      C1021   1.258       .  A
O1012      V1017   1.874       .  S
O1012      C1022   1.257       .  A
O1013      V1018   1.909       .  S
O1013      C1022   1.268       .  A
O1014      V1018   1.914       .  S
O1014      C1021   1.269       .  A
O1015      V1018   1.882       .  S
O1015      C1020   1.259       .  A
O1016      V1018   1.889       .  S
O1016      C1019   1.261       .  A
V1017      V1018   2.086       .  T
C1019      C2049   1.488       .  S
C1020      C1752   1.481       .  S
C1021      C1741   1.474       .  S
C1022      C2945   1.467       .  S
O1023      V1031   1.914       .  S
O1023      C1033   1.269       .  A
O1024      V1031   1.911       .  S
O1024      C1034   1.269       .  A
O1025      V1031   1.884       .  S
O1025      C1035   1.259       .  A
O1026      V1031   1.885       .  S
O1026      C1036   1.259       .  A
O1027      V1032   1.912       .  S
O1027      C1036   1.267       .  A
O1028      V1032   1.907       .  S
O1028      C1035   1.267       .  A
O1029      V1032   1.885       .  S
O1029      C1034   1.259       .  A
O1030      V1032   1.892       .  S
O1030      C1033   1.263       .  A
V1031      V1032   2.084       .  T
C1033      C1783   1.491       .  S
C1034      C1738   1.482       .  S
C1035      C2399   1.470       .  S
C1036      C1724   1.468       .  S
O1037      V1045   1.912       .  S
O1037      C1047   1.269       .  A
O1038      V1045   1.905       .  S
O1038      C1048   1.267       .  A
O1039      V1045   1.880       .  S
O1039      C1049   1.259       .  A
O1040      V1045   1.881       .  S
O1040      C1050   1.259       .  A
O1041      V1046   1.908       .  S
O1041      C1050   1.266       .  A
O1042      V1046   1.902       .  S
O1042      C1049   1.267       .  A
O1043      V1046   1.890       .  S
O1043      C1048   1.262       .  A
O1044      V1046   1.893       .  S
O1044      C1047   1.263       .  A
V1045      V1046   2.085       .  T
C1047      C1696   1.489       .  S
C1048      C1713   1.486       .  S
C1049      C3141   1.479       .  S
C1050      C1755   1.466       .  S
O1051      V1059   1.917       .  S
O1051      C1061   1.270       .  A
O1052      V1059   1.914       .  S
O1052      C1062   1.269       .  A
O1053      V1059   1.878       .  S
O1053      C1063   1.259       .  A
O1054      V1059   1.874       .  S
O1054      C1064   1.258       .  A
O1055      V1060   1.908       .  S
O1055      C1064   1.268       .  A
O1056      V1060   1.912       .  S
O1056      C1063   1.267       .  A
O1057      V1060   1.887       .  S
O1057      C1062   1.260       .  A
O1058      V1060   1.891       .  S
O1058      C1061   1.262       .  A
V1059      V1060   2.085       .  T
C1061      C1867   1.490       .  S
C1062      C1685   1.478       .  S
C1063      C1710   1.468       .  S
C1064      C3435   1.478       .  S
O1065      V1073   1.909       .  S
O1065      C1075   1.267       .  A
O1066      V1073   1.905       .  S
O1066      C1076   1.267       .  A
O1067      V1073   1.890       .  S
O1067      C1077   1.262       .  A
O1068      V1073   1.888       .  S
O1068      C1078   1.261       .  A
O1069      V1074   1.914       .  S
O1069      C1078   1.268       .  A
O1070      V1074   1.905       .  S
O1070      C1077   1.267       .  A
O1071      V1074   1.901       .  S
O1071      C1076   1.263       .  A
O1072      V1074   1.906       .  S
O1072      C1075   1.266       .  A
V1073      V1074   2.085       .  T
C1075      C2119   1.492       .  S
C1076      C1668   1.483       .  S
C1077      C3981   1.487       .  S
C1078      C1682   1.476       .  S
O1079      V1087   1.915       .  S
O1079      C1089   1.270       .  A
O1080      V1087   1.911       .  S
O1080      C1090   1.269       .  A
O1081      V1087   1.882       .  S
O1081      C1091   1.261       .  A
O1082      V1087   1.880       .  S
O1082      C1092   1.259       .  A
O1083      V1088   1.918       .  S
O1083      C1092   1.270       .  A
O1084      V1088   1.924       .  S
O1084      C1091   1.271       .  A
O1085      V1088   1.887       .  S
O1085      C1090   1.260       .  A
O1086      V1088   1.892       .  S
O1086      C1089   1.261       .  A
V1087      V1088   2.084       .  T
C1089      C1654   1.496       .  S
C1090      C1727   1.482       .  S
C1091      C1671   1.490       .  S
C1092      C2553   1.481       .  S
O1093      V1101   1.918       .  S
O1093      C1103   1.270       .  A
O1094      V1101   1.921       .  S
O1094      C1104   1.270       .  A
O1095      V1101   1.870       .  S
O1095      C1105   1.258       .  A
O1096      V1101   1.865       .  S
O1096      C1106   1.256       .  A
O1097      V1102   1.919       .  S
O1097      C1106   1.271       .  A
O1098      V1102   1.925       .  S
O1098      C1105   1.271       .  A
O1099      V1102   1.888       .  S
O1099      C1104   1.259       .  A
O1100      V1102   1.891       .  S
O1100      C1103   1.261       .  A
V1101      V1102   2.085       .  T
C1103      C1657   1.490       .  S
C1104      C1640   1.479       .  S
C1105      C1626   1.479       .  S
C1106      C2833   1.482       .  S
O1107      V1115   1.914       .  S
O1107      C1117   1.269       .  A
O1108      V1115   1.907       .  S
O1108      C1118   1.268       .  A
O1109      V1115   1.876       .  S
O1109      C1119   1.257       .  A
O1110      V1115   1.881       .  S
O1110      C1120   1.260       .  A
O1111      V1116   1.917       .  S
O1111      C1120   1.269       .  A
O1112      V1116   1.909       .  S
O1112      C1119   1.268       .  A
O1113      V1116   1.895       .  S
O1113      C1118   1.261       .  A
O1114      V1116   1.896       .  S
O1114      C1117   1.264       .  A
V1115      V1116   2.085       .  T
C1117      C1979   1.496       .  S
C1118      C1629   1.481       .  S
C1119      C3393   1.468       .  S
C1120      C1612   1.484       .  S
O1121      V1129   1.917       .  S
O1121      C1131   1.270       .  A
O1122      V1129   1.917       .  S
O1122      C1132   1.270       .  A
O1123      V1129   1.879       .  S
O1123      C1133   1.260       .  A
O1124      V1129   1.872       .  S
O1124      C1134   1.256       .  A
O1125      V1130   1.921       .  S
O1125      C1134   1.272       .  A
O1126      V1130   1.921       .  S
O1126      C1133   1.270       .  A
O1127      V1130   1.882       .  S
O1127      C1132   1.258       .  A
O1128      V1130   1.883       .  S
O1128      C1131   1.260       .  A
V1129      V1130   2.084       .  T
C1131      C1909   1.490       .  S
C1132      C1601   1.476       .  S
C1133      C1584   1.488       .  S
C1134      C2483   1.484       .  S
O1135      V1143   1.911       .  S
O1135      C1145   1.268       .  A
O1136      V1143   1.909       .  S
O1136      C1146   1.268       .  A
O1137      V1143   1.885       .  S
O1137      C1147   1.261       .  A
O1138      V1143   1.885       .  S
O1138      C1148   1.260       .  A
O1139      V1144   1.921       .  S
O1139      C1148   1.270       .  A
O1140      V1144   1.910       .  S
O1140      C1147   1.268       .  A
O1141      V1144   1.891       .  S
O1141      C1146   1.260       .  A
O1142      V1144   1.899       .  S
O1142      C1145   1.263       .  A
V1143      V1144   2.084       .  T
C1145      C1570   1.485       .  S
C1146      C1587   1.478       .  S
C1147      C3012   1.486       .  S
C1148      C1643   1.483       .  S
O1149      V1157   1.911       .  S
O1149      C1159   1.268       .  A
O1150      V1157   1.912       .  S
O1150      C1160   1.268       .  A
O1151      V1157   1.874       .  S
O1151      C1161   1.256       .  A
O1152      V1157   1.873       .  S
O1152      C1162   1.259       .  A
O1153      V1158   1.913       .  S
O1153      C1162   1.269       .  A
O1154      V1158   1.921       .  S
O1154      C1161   1.271       .  A
O1155      V1158   1.889       .  S
O1155      C1160   1.260       .  A
O1156      V1158   1.895       .  S
O1156      C1159   1.263       .  A
V1157      V1158   2.083       .  T
C1159      C1545   1.487       .  S
C1160      C1615   1.476       .  S
C1161      C1559   1.489       .  S
C1162      C3939   1.481       .  S
O1163      V1171   1.910       .  S
O1163      C1173   1.269       .  A
O1164      V1171   1.907       .  S
O1164      C1174   1.268       .  A
O1165      V1171   1.882       .  S
O1165      C1175   1.259       .  A
O1166      V1171   1.881       .  S
O1166      C1176   1.259       .  A
O1167      V1172   1.915       .  S
O1167      C1176   1.269       .  A
O1168      V1172   1.909       .  S
O1168      C1175   1.268       .  A
O1169      V1172   1.892       .  S
O1169      C1174   1.260       .  A
O1170      V1172   1.896       .  S
O1170      C1173   1.264       .  A
V1171      V1172   2.084       .  T
C1173      C1699   1.492       .  S
C1174      C1556   1.471       .  S
C1175      C3617   1.472       .  S
C1176      C1598   1.474       .  S
O1177      V1185   1.903       .  S
O1177      C1187   1.266       .  A
O1178      V1185   1.903       .  S
O1178      C1188   1.266       .  A
O1179      V1185   1.883       .  S
O1179      C1189   1.260       .  A
O1180      V1185   1.888       .  S
O1180      C1190   1.261       .  A
O1181      V1186   1.905       .  S
O1181      C1190   1.268       .  A
O1182      V1186   1.911       .  S
O1182      C1189   1.267       .  A
O1183      V1186   1.890       .  S
O1183      C1188   1.262       .  A
O1184      V1186   1.901       .  S
O1184      C1187   1.264       .  A
V1185      V1186   2.085       .  T
C1187      C1769   1.481       .  S
C1188      C1531   1.478       .  S
C1189      C1514   1.471       .  S
C1190      C3337   1.486       .  S
O1191      V1199   1.919       .  S
O1191      C1201   1.270       .  A
O1192      V1199   1.913       .  S
O1192      C1202   1.269       .  A
O1193      V1199   1.878       .  S
O1193      C1203   1.259       .  A
O1194      V1199   1.886       .  S
O1194      C1204   1.261       .  A
O1195      V1200   1.909       .  S
O1195      C1204   1.267       .  A
O1196      V1200   1.906       .  S
O1196      C1203   1.267       .  A
O1197      V1200   1.884       .  S
O1197      C1202   1.260       .  A
O1198      V1200   1.887       .  S
O1198      C1201   1.262       .  A
V1199      V1200   2.085       .  T
C1201      C1573   1.496       .  S
C1202      C1500   1.480       .  S
C1203      C3183   1.474       .  S
C1204      C1528   1.477       .  S
O1205      V1213   1.917       .  S
O1205      C1215   1.271       .  A
O1206      V1213   1.916       .  S
O1206      C1216   1.269       .  A
O1207      V1213   1.875       .  S
O1207      C1217   1.257       .  A
O1208      V1213   1.880       .  S
O1208      C1218   1.259       .  A
O1209      V1214   1.916       .  S
O1209      C1218   1.268       .  A
O1210      V1214   1.910       .  S
O1210      C1217   1.269       .  A
O1211      V1214   1.880       .  S
O1211      C1216   1.259       .  A
O1212      V1214   1.888       .  S
O1212      C1215   1.260       .  A
V1213      V1214   2.085       .  T
C1215      C1475   1.495       .  S
C1216      C1517   1.473       .  S
C1217      C2777   1.479       .  S
C1218      C1486   1.477       .  S
O1219      V1227   1.912       .  S
O1219      C1229   1.268       .  A
O1220      V1227   1.910       .  S
O1220      C1230   1.269       .  A
O1221      V1227   1.879       .  S
O1221      C1231   1.258       .  A
O1222      V1227   1.878       .  S
O1222      C1232   1.258       .  A
O1223      V1228   1.905       .  S
O1223      C1232   1.268       .  A
O1224      V1228   1.912       .  S
O1224      C1231   1.267       .  A
O1225      V1228   1.891       .  S
O1225      C1230   1.261       .  A
O1226      V1228   1.894       .  S
O1226      C1229   1.264       .  A
V1227      V1228   2.085       .  T
C1229      C1542   1.496       .  S
C1230      C1489   1.483       .  S
C1231      C1458   1.469       .  S
C1232      C2676   1.476       .  S
O1233      V1241   1.911       .  S
O1233      C1243   1.268       .  A
O1234      V1241   1.903       .  S
O1234      C1244   1.268       .  A
O1235      V1241   1.884       .  S
O1235      C1245   1.259       .  A
O1236      V1241   1.885       .  S
O1236      C1246   1.261       .  A
O1237      V1242   1.921       .  S
O1237      C1246   1.270       .  A
O1238      V1242   1.915       .  S
O1238      C1245   1.268       .  A
O1239      V1242   1.889       .  S
O1239      C1244   1.261       .  A
O1240      V1242   1.893       .  S
O1240      C1243   1.263       .  A
V1241      V1242   2.086       .  T
C1243      C1825   1.489       .  S
C1244      C1461   1.481       .  S
C1245      C2455   1.474       .  S
C1246      C1444   1.485       .  S
O1247      V1255   1.908       .  S
O1247      C1257   1.267       .  A
O1248      V1255   1.908       .  S
O1248      C1258   1.268       .  A
O1249      V1255   1.882       .  S
O1249      C1259   1.259       .  A
O1250      V1255   1.886       .  S
O1250      C1260   1.261       .  A
O1251      V1256   1.899       .  S
O1251      C1260   1.265       .  A
O1252      V1256   1.908       .  S
O1252      C1259   1.266       .  A
O1253      V1256   1.896       .  S
O1253      C1258   1.262       .  A
O1254      V1256   1.899       .  S
O1254      C1257   1.264       .  A
V1255      V1256   2.085       .  T
C1257      C1430   1.486       .  S
C1258      C1447   1.483       .  S
C1259      C1503   1.464       .  S
C1260      C3659   1.482       .  S
O1261      V1269   1.911       .  S
O1261      C1271   1.269       .  A
O1262      V1269   1.906       .  S
O1262      C1272   1.268       .  A
O1263      V1269   1.879       .  S
O1263      C1273   1.258       .  A
O1264      V1269   1.878       .  S
O1264      C1274   1.259       .  A
O1265      V1270   1.916       .  S
O1265      C1274   1.267       .  A
O1266      V1270   1.907       .  S
O1266      C1273   1.268       .  A
O1267      V1270   1.897       .  S
O1267      C1272   1.262       .  A
O1268      V1270   1.899       .  S
O1268      C1271   1.263       .  A
V1269      V1270   2.086       .  T
C1271      C2231   1.497       .  S
C1272      C1416   1.485       .  S
C1273      C2651   1.474       .  S
C1274      C1402   1.469       .  S
O1275      V1283   1.912       .  S
O1275      C1285   1.269       .  A
O1276      V1283   1.911       .  S
O1276      C1286   1.269       .  A
O1277      V1283   1.880       .  S
O1277      C1287   1.257       .  A
O1278      V1283   1.885       .  S
O1278      C1288   1.259       .  A
O1279      V1284   1.915       .  S
O1279      C1288   1.268       .  A
O1280      V1284   1.911       .  S
O1280      C1287   1.268       .  A
O1281      V1284   1.887       .  S
O1281      C1286   1.260       .  A
O1282      V1284   1.892       .  S
O1282      C1285   1.262       .  A
V1283      V1284   2.087       .  T
C1285      C1472   1.487   1_565  S
C1286      C1388   1.481       .  S
C1287      C3057   1.469       .  S
C1288      C1374   1.470       .  S
O1289      V1297   1.911       .  S
O1289      C1299   1.269       .  A
O1290      V1297   1.909       .  S
O1290      C1300   1.268       .  A
O1291      V1297   1.877       .  S
O1291      C1301   1.259       .  A
O1292      V1297   1.874       .  S
O1292      C1302   1.258       .  A
O1293      V1298   1.915       .  S
O1293      C1302   1.269       .  A
O1294      V1298   1.921       .  S
O1294      C1301   1.270       .  A
O1295      V1298   1.897       .  S
O1295      C1300   1.263       .  A
O1296      V1298   1.899       .  S
O1296      C1299   1.263       .  A
V1297      V1298   2.083       .  T
C1299      C2004   1.497       .  S
C1300      C1377   1.487       .  S
C1301      C1419   1.479       .  S
C1302      C2424   1.484       .  S
O1303      V1311   1.905       .  S
O1303      C1313   1.267       .  A
O1304      V1311   1.902       .  S
O1304      C1314   1.267       .  A
O1305      V1311   1.882       .  S
O1305      C1315   1.260       .  A
O1306      V1311   1.879       .  S
O1306      C1316   1.260       .  A
O1307      V1312   1.905       .  S
O1307      C1316   1.267       .  A
O1308      V1312   1.911       .  S
O1308      C1315   1.267       .  A
O1309      V1312   1.898       .  S
O1309      C1314   1.263       .  A
O1310      V1312   1.897       .  S
O1310      C1313   1.264       .  A
V1311      V1312   2.085       .  T
C1313      C1433   1.492       .  S
C1314      C1405   1.486       .  S
C1315      C1360   1.474       .  S
C1316      C3813   1.479       .  S
O1317      V1325   1.907       .  S
O1317      C1327   1.267       .  A
O1318      V1325   1.906       .  S
O1318      C1328   1.267       .  A
O1319      V1325   1.885       .  S
O1319      C1329   1.259       .  A
O1320      V1325   1.885       .  S
O1320      C1330   1.261       .  A
O1321      V1326   1.901       .  S
O1321      C1330   1.266       .  A
O1322      V1326   1.912       .  S
O1322      C1329   1.267       .  A
O1323      V1326   1.891       .  S
O1323      C1328   1.261       .  A
O1324      V1326   1.896       .  S
O1324      C1327   1.263       .  A
V1325      V1326   2.086       .  T
C1327      C2203   1.484       .  S
C1328      C1349   1.476       .  S
C1329      C1391   1.468       .  S
C1330      C3225   1.484       .  S
O1331      V1339   1.912       .  S
O1331      C1341   1.268       .  A
O1332      V1339   1.905       .  S
O1332      C1342   1.267       .  A
O1333      V1339   1.891       .  S
O1333      C1343   1.261       .  A
O1334      V1339   1.896       .  S
O1334      C1344   1.263       .  A
O1335      V1340   1.912       .  S
O1335      C1344   1.269       .  A
O1336      V1340   1.907       .  S
O1336      C1343   1.268       .  A
O1337      V1340   1.885       .  S
O1337      C1342   1.261       .  A
O1338      V1340   1.883       .  S
O1338      C1341   1.260       .  A
V1339      V1340   2.084       .  T
C1341      C1346   1.478       .  S
C1342      C3348   1.484       .  S
C1343      C1363   1.479       .  S
C1344      C1923   1.496       .  S
C1345      C1346   1.402       .  A
C1345      C1350   1.406       .  A
C1345      H1352   1.084       .  S
C1346      C1347   1.417       .  A
C1347      C1348   1.402       .  A
C1347      N1354   1.438       .  S
C1348      C1349   1.398       .  A
C1348      H1353   1.084       .  S
C1349      C1350   1.412       .  A
C1350      N1351   1.432       .  S
N1351      H1355   1.046       .  S
N1351      H1356   1.045       .  S
N1354      H1357   1.045       .  S
N1354      H1358   1.046       .  S
C1359      C1360   1.400       .  A
C1359      C1364   1.409       .  A
C1359      H1366   1.084       .  S
C1360      C1361   1.410       .  A
C1361      C1362   1.398       .  A
C1361      N1368   1.433       .  S
C1362      C1363   1.400       .  A
C1362      H1367   1.083       .  S
C1363      C1364   1.417       .  A
C1364      N1365   1.437       .  S
N1365      H1369   1.046       .  S
N1365      H1370   1.045       .  S
N1368      H1371   1.046       .  S
N1368      H1372   1.045       .  S
C1373      C1374   1.401       .  A
C1373      C1378   1.403       .  A
C1373      H1380   1.084       .  S
C1374      C1375   1.408       .  A
C1375      C1376   1.409       .  A
C1375      N1382   1.438       .  S
C1376      C1377   1.409       .  A
C1376      H1381   1.083       .  S
C1377      C1378   1.411       .  A
C1378      N1379   1.432       .  S
N1379      H1383   1.046       .  S
N1379      H1384   1.046       .  S
N1382      H1385   1.046       .  S
N1382      H1386   1.045       .  S
C1387      C1388   1.401       .  A
C1387      C1392   1.400       .  A
C1387      H1394   1.084       .  S
C1388      C1389   1.416       .  A
C1389      C1390   1.406       .  A
C1389      N1396   1.438       .  S
C1390      C1391   1.399       .  A
C1390      H1395   1.084       .  S
C1391      C1392   1.417       .  A
C1392      N1393   1.439       .  S
N1393      H1397   1.045       .  S
N1393      H1398   1.041       .  S
N1396      H1399   1.046       .  S
N1396      H1400   1.046       .  S
C1401      C1402   1.401       .  A
C1401      C1406   1.397       .  A
C1401      H1408   1.085       .  S
C1402      C1403   1.406       .  A
C1403      C1404   1.412       .  A
C1403      N1410   1.437       .  S
C1404      C1405   1.412       .  A
C1404      H1409   1.083       .  S
C1405      C1406   1.410       .  A
C1406      N1407   1.433       .  S
N1407      H1411   1.046       .  S
N1407      H1412   1.046       .  S
N1410      H1413   1.046       .  S
N1410      H1414   1.046       .  S
C1415      C1416   1.400       .  A
C1415      C1420   1.399       .  A
C1415      H1422   1.084       .  S
C1416      C1417   1.417       .  A
C1417      C1418   1.409       .  A
C1417      N1424   1.432       .  S
C1418      C1419   1.401       .  A
C1418      H1423   1.084       .  S
C1419      C1420   1.413       .  A
C1420      N1421   1.434       .  S
N1421      H1425   1.046       .  S
N1421      H1426   1.046       .  S
N1424      H1427   1.046       .  S
N1424      H1428   1.046       .  S
C1429      C1430   1.405       .  A
C1429      C1434   1.404       .  A
C1429      H1436   1.084       .  S
C1430      C1431   1.411       .  A
C1431      C1432   1.409       .  A
C1431      N1438   1.438       .  S
C1432      C1433   1.410       .  A
C1432      H1437   1.083       .  S
C1433      C1434   1.412       .  A
C1434      N1435   1.432       .  S
N1435      H1439   1.046       .  S
N1435      H1440   1.045       .  S
N1438      H1441   1.046       .  S
N1438      H1442   1.046       .  S
C1443      C1444   1.407       .  A
C1443      C1448   1.400       .  A
C1443      H1450   1.084       .  S
C1444      C1445   1.411       .  A
C1445      C1446   1.413       .  A
C1445      N1452   1.437       .  S
C1446      C1447   1.409       .  A
C1446      H1451   1.084       .  S
C1447      C1448   1.406       .  A
C1448      N1449   1.433       .  S
N1449      H1453   1.046       .  S
N1449      H1454   1.046       .  S
N1452      H1455   1.046       .  S
N1452      H1456   1.046       .  S
C1457      C1458   1.398       .  A
C1457      C1462   1.408       .  A
C1457      H1464   1.084       .  S
C1458      C1459   1.414       .  A
C1459      C1460   1.392       .  A
C1459      N1466   1.433       .  S
C1460      C1461   1.401       .  A
C1460      H1465   1.084       .  S
C1461      C1462   1.420       .  A
C1462      N1463   1.438       .  S
N1463      H1467   1.046       .  S
N1463      H1468   1.046       .  S
N1466      H1469   1.045       .  S
N1466      H1470   1.044       .  S
C1471      C1472   1.400       .  A
C1471      C1476   1.408       .  A
C1471      H1478   1.084   1_545  S
C1472      C1473   1.417       .  A
C1473      C1474   1.408       .  A
C1473      N1480   1.438       .  S
C1474      C1475   1.404       .  A
C1474      H1479   1.083       .  S
C1475      C1476   1.422       .  A
C1476      N1477   1.438       .  S
N1477      H1481   1.046       .  S
N1477      H1482   1.046       .  S
N1480      H1483   1.046       .  S
N1480      H1484   1.046       .  S
C1485      C1486   1.399       .  A
C1485      C1490   1.407       .  A
C1485      H1492   1.084       .  S
C1486      C1487   1.416       .  A
C1487      C1488   1.403       .  A
C1487      N1494   1.439       .  S
C1488      C1489   1.400       .  A
C1488      H1493   1.084       .  S
C1489      C1490   1.416       .  A
C1490      N1491   1.432       .  S
N1491      H1495   1.046       .  S
N1491      H1496   1.046       .  S
N1494      H1497   1.046       .  S
N1494      H1498   1.045       .  S
C1499      C1500   1.407       .  A
C1499      C1504   1.402       .  A
C1499      H1506   1.084       .  S
C1500      C1501   1.412       .  A
C1501      C1502   1.406       .  A
C1501      N1508   1.438       .  S
C1502      C1503   1.403       .  A
C1502      H1507   1.084       .  S
C1503      C1504   1.405       .  A
C1504      N1505   1.439       .  S
N1505      H1509   1.046       .  S
N1505      H1510   1.045       .  S
N1508      H1511   1.046       .  S
N1508      H1512   1.046       .  S
C1513      C1514   1.399       .  A
C1513      C1518   1.397       .  A
C1513      H1520   1.084       .  S
C1514      C1515   1.415       .  A
C1515      C1516   1.410       .  A
C1515      N1522   1.438       .  S
C1516      C1517   1.402       .  A
C1516      H1521   1.084       .  S
C1517      C1518   1.409       .  A
C1518      N1519   1.433       .  S
N1519      H1523   1.046       .  S
N1519      H1524   1.045       .  S
N1522      H1525   1.045       .  S
N1522      H1526   1.046       .  S
C1527      C1528   1.406       .  A
C1527      C1532   1.403       .  A
C1527      H1534   1.084       .  S
C1528      C1529   1.406       .  A
C1529      C1530   1.403       .  A
C1529      N1536   1.432       .  S
C1530      C1531   1.406       .  A
C1530      H1535   1.084       .  S
C1531      C1532   1.412       .  A
C1532      N1533   1.439       .  S
N1533      H1537   1.046       .  S
N1533      H1538   1.045       .  S
N1536      H1539   1.046       .  S
N1536      H1540   1.045       .  S
C1541      C1542   1.411   1_455  A
C1541      C1546   1.408       .  A
C1541      H1548   1.083   1_455  S
C1542      C1543   1.418       .  A
C1543      C1544   1.402   1_655  A
C1543      N1550   1.432       .  S
C1544      C1545   1.406       .  A
C1544      H1549   1.084       .  S
C1545      C1546   1.409       .  A
C1546      N1547   1.438       .  S
N1547      H1551   1.045       .  S
N1547      H1552   1.046       .  S
N1550      H1553   1.045       .  S
N1550      H1554   1.045       .  S
C1555      C1556   1.394       .  A
C1555      C1560   1.394       .  A
C1555      H1562   1.085       .  S
C1556      C1557   1.413       .  A
C1557      C1558   1.403       .  A
C1557      N1564   1.432       .  S
C1558      C1559   1.406       .  A
C1558      H1563   1.084       .  S
C1559      C1560   1.427       .  A
C1560      N1561   1.433       .  S
N1561      H1565   1.045       .  S
N1561      H1566   1.045       .  S
N1564      H1567   1.043       .  S
N1564      H1568   1.046       .  S
C1569      C1570   1.406       .  A
C1569      C1574   1.411       .  A
C1569      H1576   1.084       .  S
C1570      C1571   1.407       .  A
C1571      C1572   1.407       .  A
C1571      N1578   1.438       .  S
C1572      C1573   1.412       .  A
C1572      H1577   1.083       .  S
C1573      C1574   1.415       .  A
C1574      N1575   1.437       .  S
N1575      H1579   1.046       .  S
N1575      H1580   1.046       .  S
N1578      H1581   1.046       .  S
N1578      H1582   1.046       .  S
C1583      C1584   1.410       .  A
C1583      C1588   1.402       .  A
C1583      H1590   1.083       .  S
C1584      C1585   1.414       .  A
C1585      C1586   1.404       .  A
C1585      N1592   1.432       .  S
C1586      C1587   1.407       .  A
C1586      H1591   1.084       .  S
C1587      C1588   1.407       .  A
C1588      N1589   1.439       .  S
N1589      H1593   1.045       .  S
N1589      H1594   1.046       .  S
N1592      H1595   1.045       .  S
N1592      H1596   1.045       .  S
C1597      C1598   1.402       .  A
C1597      C1602   1.400       .  A
C1597      H1604   1.085       .  S
C1598      C1599   1.422       .  A
C1599      C1600   1.405       .  A
C1599      N1606   1.438       .  S
C1600      C1601   1.400       .  A
C1600      H1605   1.084       .  S
C1601      C1602   1.409       .  A
C1602      N1603   1.433       .  S
N1603      H1607   1.046       .  S
N1603      H1608   1.046       .  S
N1606      H1609   1.040       .  S
N1606      H1610   1.046       .  S
C1611      C1612   1.408       .  A
C1611      C1616   1.395       .  A
C1611      H1618   1.084       .  S
C1612      C1613   1.411       .  A
C1613      C1614   1.411       .  A
C1613      N1620   1.437       .  S
C1614      C1615   1.407       .  A
C1614      H1619   1.084       .  S
C1615      C1616   1.409       .  A
C1616      N1617   1.433       .  S
N1617      H1621   1.044       .  S
N1617      H1622   1.046       .  S
N1620      H1623   1.046       .  S
N1620      H1624   1.046       .  S
C1625      C1626   1.406       .  A
C1625      C1630   1.399       .  A
C1625      H1632   1.084       .  S
C1626      C1627   1.409       .  A
C1627      C1628   1.407       .  A
C1627      N1634   1.432       .  S
C1628      C1629   1.412       .  A
C1628      H1633   1.084       .  S
C1629      C1630   1.408       .  A
C1630      N1631   1.439       .  S
N1631      H1635   1.046       .  S
N1631      H1636   1.046       .  S
N1634      H1637   1.046       .  S
N1634      H1638   1.045       .  S
C1639      C1640   1.404       .  A
C1639      C1644   1.414       .  A
C1639      H1646   1.084       .  S
C1640      C1641   1.413       .  A
C1641      C1642   1.397       .  A
C1641      N1648   1.433       .  S
C1642      C1643   1.403       .  A
C1642      H1647   1.084       .  S
C1643      C1644   1.415       .  A
C1644      N1645   1.438       .  S
N1645      H1649   1.046       .  S
N1645      H1650   1.045       .  S
N1648      H1651   1.045       .  S
N1648      H1652   1.045       .  S
C1653      C1654   1.404       .  A
C1653      C1658   1.408   1_556  A
C1653      H1660   1.083       .  S
C1654      C1655   1.422   1_556  A
C1655      C1656   1.409       .  A
C1655      N1662   1.438       .  S
C1656      C1657   1.401       .  A
C1656      H1661   1.084       .  S
C1657      C1658   1.418       .  A
C1658      N1659   1.439       .  S
N1659      H1663   1.045   1_554  S
N1659      H1664   1.046       .  S
N1662      H1665   1.045       .  S
N1662      H1666   1.046       .  S
C1667      C1668   1.408       .  A
C1667      C1672   1.414       .  A
C1667      H1674   1.084       .  S
C1668      C1669   1.409       .  A
C1669      C1670   1.402       .  A
C1669      N1676   1.439       .  S
C1670      C1671   1.408       .  A
C1670      H1675   1.083       .  S
C1671      C1672   1.412       .  A
C1672      N1673   1.437       .  S
N1673      H1677   1.046       .  S
N1673      H1678   1.046       .  S
N1676      H1679   1.045       .  S
N1676      H1680   1.046       .  S
C1681      C1682   1.402       .  A
C1681      C1686   1.404       .  A
C1681      H1688   1.084       .  S
C1682      C1683   1.421       .  A
C1683      C1684   1.404       .  A
C1683      N1690   1.439       .  S
C1684      C1685   1.401       .  A
C1684      H1689   1.084       .  S
C1685      C1686   1.412       .  A
C1686      N1687   1.439       .  S
N1687      H1691   1.046       .  S
N1687      H1692   1.046       .  S
N1690      H1693   1.041       .  S
N1690      H1694   1.046       .  S
C1695      C1696   1.408       .  A
C1695      C1700   1.404       .  A
C1695      H1702   1.084       .  S
C1696      C1697   1.410       .  A
C1697      C1698   1.407       .  A
C1697      N1704   1.432       .  S
C1698      C1699   1.410       .  A
C1698      H1703   1.083       .  S
C1699      C1700   1.411       .  A
C1700      N1701   1.432       .  S
N1701      H1705   1.046       .  S
N1701      H1706   1.046       .  S
N1704      H1707   1.046       .  S
N1704      H1708   1.046       .  S
C1709      C1710   1.403       .  A
C1709      C1714   1.402       .  A
C1709      H1716   1.085       .  S
C1710      C1711   1.410       .  A
C1711      C1712   1.402       .  A
C1711      N1718   1.438       .  S
C1712      C1713   1.411       .  A
C1712      H1717   1.084       .  S
C1713      C1714   1.414       .  A
C1714      N1715   1.438       .  S
N1715      H1719   1.046       .  S
N1715      H1720   1.045       .  S
N1718      H1721   1.043       .  S
N1718      H1722   1.046       .  S
C1723      C1724   1.399       .  A
C1723      C1728   1.406       .  A
C1723      H1730   1.084       .  S
C1724      C1725   1.412       .  A
C1725      C1726   1.399       .  A
C1725      N1732   1.432       .  S
C1726      C1727   1.403       .  A
C1726      H1731   1.084       .  S
C1727      C1728   1.418       .  A
C1728      N1729   1.438       .  S
N1729      H1733   1.046       .  S
N1729      H1734   1.046       .  S
N1732      H1735   1.045       .  S
N1732      H1736   1.045       .  S
C1737      C1738   1.401       .  A
C1737      C1742   1.402       .  A
C1737      H1744   1.084       .  S
C1738      C1739   1.422       .  A
C1739      C1740   1.400       .  A
C1739      N1746   1.432       .  S
C1740      C1741   1.398       .  A
C1740      H1745   1.084       .  S
C1741      C1742   1.415       .  A
C1742      N1743   1.439       .  S
N1743      H1747   1.046       .  S
N1743      H1748   1.046       .  S
N1746      H1749   1.046       .  S
N1746      H1750   1.044       .  S
C1751      C1752   1.402       .  A
C1751      C1756   1.400       .  A
C1751      H1758   1.084       .  S
C1752      C1753   1.419       .  A
C1753      C1754   1.403       .  A
C1753      N1760   1.432       .  S
C1754      C1755   1.395       .  A
C1754      H1759   1.084       .  S
C1755      C1756   1.409       .  A
C1756      N1757   1.433       .  S
N1757      H1761   1.046       .  S
N1757      H1762   1.045       .  S
N1760      H1763   1.046       .  S
N1760      H1764   1.046       .  S
C1765      C1766   1.406       .  A
C1765      C1770   1.409   1_556  A
C1765      H1772   1.083       .  S
C1766      C1767   1.420   1_556  A
C1767      C1768   1.404       .  A
C1767      N1774   1.438       .  S
C1768      C1769   1.399       .  A
C1768      H1773   1.084       .  S
C1769      C1770   1.414       .  A
C1770      N1771   1.438       .  S
N1771      H1775   1.046   1_554  S
N1771      H1776   1.046       .  S
N1774      H1777   1.046   1_554  S
N1774      H1778   1.046       .  S
C1779      C1780   1.409   1_455  A
C1779      C1784   1.405       .  A
C1779      H1786   1.084       .  S
C1780      C1781   1.413       .  A
C1781      C1782   1.408   1_655  A
C1781      N1788   1.438       .  S
C1782      C1783   1.409       .  A
C1782      H1787   1.083       .  S
C1783      C1784   1.409       .  A
C1784      N1785   1.432       .  S
N1785      H1789   1.046       .  S
N1785      H1790   1.046       .  S
N1788      H1791   1.046       .  S
N1788      H1792   1.046       .  S
C1793      C1794   1.399       .  A
C1793      C1798   1.402       .  A
C1793      H1800   1.084       .  S
C1794      C1795   1.410       .  A
C1795      C1796   1.407       .  A
C1795      N1802   1.438       .  S
C1796      C1797   1.403       .  A
C1796      H1801   1.084       .  S
C1797      C1798   1.414       .  A
C1798      N1799   1.439       .  S
N1799      H1803   1.046       .  S
N1799      H1804   1.046       .  S
N1802      H1805   1.045       .  S
N1802      H1806   1.046       .  S
C1807      C1808   1.406       .  A
C1807      C1812   1.402       .  A
C1807      H1814   1.084       .  S
C1808      C1809   1.403       .  A
C1809      C1810   1.397       .  A
C1809      N1816   1.433       .  S
C1810      C1811   1.409       .  A
C1810      H1815   1.084       .  S
C1811      C1812   1.416       .  A
C1812      N1813   1.432       .  S
N1813      H1817   1.046       .  S
N1813      H1818   1.045       .  S
N1816      H1819   1.046       .  S
N1816      H1820   1.046       .  S
C1821      C1822   1.409       .  A
C1821      C1826   1.407       .  A
C1821      H1828   1.083       .  S
C1822      C1823   1.411       .  A
C1823      C1824   1.404       .  A
C1823      N1830   1.432       .  S
C1824      C1825   1.407       .  A
C1824      H1829   1.084       .  S
C1825      C1826   1.410       .  A
C1826      N1827   1.432       .  S
N1827      H1831   1.046       .  S
N1827      H1832   1.046       .  S
N1830      H1833   1.046       .  S
N1830      H1834   1.046       .  S
C1835      C1836   1.400       .  A
C1835      C1840   1.403       .  A
C1835      H1842   1.084       .  S
C1836      C1837   1.413       .  A
C1837      C1838   1.399       .  A
C1837      N1844   1.433       .  S
C1838      C1839   1.400       .  A
C1838      H1843   1.084       .  S
C1839      C1840   1.422       .  A
C1840      N1841   1.433       .  S
N1841      H1845   1.046       .  S
N1841      H1846   1.045       .  S
N1844      H1847   1.046       .  S
N1844      H1848   1.046       .  S
C1849      C1850   1.402       .  A
C1849      C1854   1.402       .  A
C1849      H1856   1.084       .  S
C1850      C1851   1.412       .  A
C1851      C1852   1.404       .  A
C1851      N1858   1.432       .  S
C1852      C1853   1.405       .  A
C1852      H1857   1.084       .  S
C1853      C1854   1.410       .  A
C1854      N1855   1.438       .  S
N1855      H1859   1.046       .  S
N1855      H1860   1.046       .  S
N1858      H1861   1.046       .  S
N1858      H1862   1.045       .  S
C1863      C1864   1.412       .  A
C1863      C1868   1.411       .  A
C1863      H1870   1.083       .  S
C1864      C1865   1.418       .  A
C1865      C1866   1.399       .  A
C1865      N1872   1.432       .  S
C1866      C1867   1.406       .  A
C1866      H1871   1.084       .  S
C1867      C1868   1.410       .  A
C1868      N1869   1.437       .  S
N1869      H1873   1.046       .  S
N1869      H1874   1.046       .  S
N1872      H1875   1.045       .  S
N1872      H1876   1.045       .  S
C1877      C1878   1.400       .  A
C1877      C1882   1.400       .  A
C1877      H1884   1.084       .  S
C1878      C1879   1.414       .  A
C1879      C1880   1.406       .  A
C1879      N1886   1.432       .  S
C1880      C1881   1.401       .  A
C1880      H1885   1.084       .  S
C1881      C1882   1.414       .  A
C1882      N1883   1.433       .  S
N1883      H1887   1.046       .  S
N1883      H1888   1.046       .  S
N1886      H1889   1.046       .  S
N1886      H1890   1.046       .  S
C1891      C1892   1.407       .  A
C1891      C1896   1.398       .  A
C1891      H1898   1.084       .  S
C1892      C1893   1.412       .  A
C1893      C1894   1.404       .  A
C1893      N1900   1.432       .  S
C1894      C1895   1.401       .  A
C1894      H1899   1.085       .  S
C1895      C1896   1.409       .  A
C1896      N1897   1.433       .  S
N1897      H1901   1.045       .  S
N1897      H1902   1.045       .  S
N1900      H1903   1.046       .  S
N1900      H1904   1.046       .  S
C1905      C1906   1.408   1_545  A
C1905      C1910   1.405       .  A
C1905      H1912   1.084       .  S
C1906      C1907   1.405       .  A
C1907      C1908   1.404   1_565  A
C1907      N1914   1.432       .  S
C1908      C1909   1.412       .  A
C1908      H1913   1.083       .  S
C1909      C1910   1.410       .  A
C1910      N1911   1.432       .  S
N1911      H1915   1.046       .  S
N1911      H1916   1.046       .  S
N1914      H1917   1.046       .  S
N1914      H1918   1.046       .  S
C1919      C1920   1.402       .  A
C1919      C1924   1.410       .  A
C1919      H1926   1.084       .  S
C1920      C1921   1.417       .  A
C1921      C1922   1.407       .  A
C1921      N1928   1.438       .  S
C1922      C1923   1.404       .  A
C1922      H1927   1.083       .  S
C1923      C1924   1.420       .  A
C1924      N1925   1.438       .  S
N1925      H1929   1.046       .  S
N1925      H1930   1.046       .  S
N1928      H1931   1.043       .  S
N1928      H1932   1.046       .  S
C1933      C1934   1.409       .  A
C1933      C1938   1.408       .  A
C1933      H1940   1.084       .  S
C1934      C1935   1.410       .  A
C1935      C1936   1.400       .  A
C1935      N1942   1.432       .  S
C1936      C1937   1.408       .  A
C1936      H1941   1.084       .  S
C1937      C1938   1.410       .  A
C1938      N1939   1.438       .  S
N1939      H1943   1.046       .  S
N1939      H1944   1.045       .  S
N1942      H1945   1.046       .  S
N1942      H1946   1.045       .  S
C1947      C1948   1.402       .  A
C1947      C1952   1.406       .  A
C1947      H1954   1.084       .  S
C1948      C1949   1.415       .  A
C1949      C1950   1.394       .  A
C1949      N1956   1.434       .  S
C1950      C1951   1.400       .  A
C1950      H1955   1.084       .  S
C1951      C1952   1.412       .  A
C1952      N1953   1.438       .  S
N1953      H1957   1.046       .  S
N1953      H1958   1.045       .  S
N1956      H1959   1.046       .  S
N1956      H1960   1.045       .  S
C1961      C1962   1.407       .  A
C1961      C1966   1.394       .  A
C1961      H1968   1.084       .  S
C1962      C1963   1.408       .  A
C1963      C1964   1.409       .  A
C1963      N1970   1.437       .  S
C1964      C1965   1.408       .  A
C1964      H1969   1.084       .  S
C1965      C1966   1.402       .  A
C1966      N1967   1.433       .  S
N1967      H1971   1.046       .  S
N1967      H1972   1.045       .  S
N1970      H1973   1.046       .  S
N1970      H1974   1.046       .  S
C1975      C1976   1.407       .  A
C1975      C1980   1.408       .  A
C1975      H1982   1.084       .  S
C1976      C1977   1.411       .  A
C1977      C1978   1.409       .  A
C1977      N1984   1.438       .  S
C1978      C1979   1.410       .  A
C1978      H1983   1.083       .  S
C1979      C1980   1.412       .  A
C1980      N1981   1.432       .  S
N1981      H1985   1.046       .  S
N1981      H1986   1.046       .  S
N1984      H1987   1.046       .  S
N1984      H1988   1.045       .  S
C1989      C1990   1.411       .  A
C1989      C1994   1.405       .  A
C1989      H1996   1.083       .  S
C1990      C1991   1.410       .  A
C1991      C1992   1.404       .  A
C1991      N1998   1.432       .  S
C1992      C1993   1.405       .  A
C1992      H1997   1.085       .  S
C1993      C1994   1.413       .  A
C1994      N1995   1.439       .  S
N1995      H1999   1.045       .  S
N1995      H2000   1.043       .  S
N1998      H2001   1.046       .  S
N1998      H2002   1.046       .  S
C2003      C2004   1.405       .  A
C2003      C2008   1.408   1_655  A
C2003      H2010   1.083       .  S
C2004      C2005   1.420   1_655  A
C2005      C2006   1.410       .  A
C2005      N2012   1.438       .  S
C2006      C2007   1.403       .  A
C2006      H2011   1.083       .  S
C2007      C2008   1.418       .  A
C2008      N2009   1.438   1_455  S
N2009      H2013   1.046       .  S
N2009      H2014   1.046   1_655  S
N2012      H2015   1.046       .  S
N2012      H2016   1.046       .  S
C2017      C2018   1.409       .  A
C2017      C2022   1.402       .  A
C2017      H2024   1.084       .  S
C2018      C2019   1.413       .  A
C2019      C2020   1.406       .  A
C2019      N2026   1.438       .  S
C2020      C2021   1.402       .  A
C2020      H2025   1.084       .  S
C2021      C2022   1.411       .  A
C2022      N2023   1.439       .  S
N2023      H2027   1.046       .  S
N2023      H2028   1.044       .  S
N2026      H2029   1.046       .  S
N2026      H2030   1.046       .  S
C2031      C2032   1.403       .  A
C2031      C2036   1.399       .  A
C2031      H2038   1.084       .  S
C2032      C2033   1.416       .  A
C2033      C2034   1.406       .  A
C2033      N2040   1.438       .  S
C2034      C2035   1.400       .  A
C2034      H2039   1.084       .  S
C2035      C2036   1.412       .  A
C2036      N2037   1.433       .  S
N2037      H2041   1.045       .  S
N2037      H2042   1.045       .  S
N2040      H2043   1.046       .  S
N2040      H2044   1.045       .  S
C2045      C2046   1.409   1_545  A
C2045      C2050   1.402       .  A
C2045      H2052   1.083       .  S
C2046      C2047   1.413   1_565  A
C2047      C2048   1.410       .  A
C2047      N2054   1.438   1_545  S
C2048      C2049   1.410       .  A
C2048      H2053   1.083       .  S
C2049      C2050   1.407       .  A
C2050      N2051   1.432       .  S
N2051      H2055   1.046       .  S
N2051      H2056   1.046       .  S
N2054      H2057   1.046       .  S
N2054      H2058   1.046       .  S
C2059      C2060   1.402       .  A
C2059      C2064   1.400       .  A
C2059      H2066   1.083       .  S
C2060      C2061   1.424       .  A
C2061      C2062   1.403       .  A
C2061      N2068   1.432       .  S
C2062      C2063   1.398       .  A
C2062      H2067   1.084       .  S
C2063      C2064   1.411       .  A
C2064      N2065   1.439       .  S
N2065      H2069   1.046       .  S
N2065      H2070   1.045       .  S
N2068      H2071   1.045       .  S
N2068      H2072   1.045       .  S
C2073      C2074   1.402       .  A
C2073      C2078   1.409   1_556  A
C2073      H2080   1.084       .  S
C2074      C2075   1.415   1_556  A
C2075      C2076   1.408       .  A
C2075      N2082   1.438       .  S
C2076      C2077   1.406       .  A
C2076      H2081   1.083       .  S
C2077      C2078   1.420       .  A
C2078      N2079   1.438       .  S
N2079      H2083   1.046   1_554  S
N2079      H2084   1.046       .  S
N2082      H2085   1.046       .  S
N2082      H2086   1.046       .  S
C2087      C2088   1.403       .  A
C2087      C2092   1.405       .  A
C2087      H2094   1.084       .  S
C2088      C2089   1.405       .  A
C2089      C2090   1.402       .  A
C2089      N2096   1.432       .  S
C2090      C2091   1.405       .  A
C2090      H2095   1.084       .  S
C2091      C2092   1.408       .  A
C2092      N2093   1.432       .  S
N2093      H2097   1.046       .  S
N2093      H2098   1.046       .  S
N2096      H2099   1.046       .  S
N2096      H2100   1.046       .  S
C2101      C2102   1.401       .  A
C2101      C2106   1.403       .  A
C2101      H2108   1.084       .  S
C2102      C2103   1.415       .  A
C2103      C2104   1.406       .  A
C2103      N2110   1.432       .  S
C2104      C2105   1.400       .  A
C2104      H2109   1.084       .  S
C2105      C2106   1.414       .  A
C2106      N2107   1.437       .  S
N2107      H2111   1.046       .  S
N2107      H2112   1.045       .  S
N2110      H2113   1.046       .  S
N2110      H2114   1.046       .  S
C2115      C2116   1.410       .  A
C2115      C2120   1.406       .  A
C2115      H2122   1.083       .  S
C2116      C2117   1.412       .  A
C2117      C2118   1.409       .  A
C2117      N2124   1.432       .  S
C2118      C2119   1.408       .  A
C2118      H2123   1.084       .  S
C2119      C2120   1.410       .  A
C2120      N2121   1.433       .  S
N2121      H2125   1.046       .  S
N2121      H2126   1.046       .  S
N2124      H2127   1.045       .  S
N2124      H2128   1.046       .  S
C2129      C2130   1.404       .  A
C2129      C2134   1.400       .  A
C2129      H2136   1.084       .  S
C2130      C2131   1.406       .  A
C2131      C2132   1.409       .  A
C2131      N2138   1.437       .  S
C2132      C2133   1.412       .  A
C2132      H2137   1.083       .  S
C2133      C2134   1.409       .  A
C2134      N2135   1.432       .  S
N2135      H2139   1.045       .  S
N2135      H2140   1.046       .  S
N2138      H2141   1.046       .  S
N2138      H2142   1.046       .  S
C2143      C2144   1.406       .  A
C2143      C2148   1.410       .  A
C2143      H2150   1.084       .  S
C2144      C2145   1.403       .  A
C2145      C2146   1.403       .  A
C2145      N2152   1.432       .  S
C2146      C2147   1.411       .  A
C2146      H2151   1.083       .  S
C2147      C2148   1.415       .  A
C2148      N2149   1.437       .  S
N2149      H2153   1.046       .  S
N2149      H2154   1.045       .  S
N2152      H2155   1.046       .  S
N2152      H2156   1.046       .  S
C2157      C2158   1.407       .  A
C2157      C2162   1.396       .  A
C2157      H2164   1.084       .  S
C2158      C2159   1.412       .  A
C2159      C2160   1.408       .  A
C2159      N2166   1.437       .  S
C2160      C2161   1.403       .  A
C2160      H2165   1.084       .  S
C2161      C2162   1.407       .  A
C2162      N2163   1.433       .  S
N2163      H2167   1.045       .  S
N2163      H2168   1.046       .  S
N2166      H2169   1.046       .  S
N2166      H2170   1.046       .  S
C2171      C2172   1.401       .  A
C2171      C2176   1.397       .  A
C2171      H2178   1.084       .  S
C2172      C2173   1.418       .  A
C2173      C2174   1.407       .  A
C2173      N2180   1.438       .  S
C2174      C2175   1.400       .  A
C2174      H2179   1.084       .  S
C2175      C2176   1.418       .  A
C2176      N2177   1.434       .  S
N2177      H2181   1.044       .  S
N2177      H2182   1.046       .  S
N2180      H2183   1.046       .  S
N2180      H2184   1.046       .  S
C2185      C2186   1.408   1_545  A
C2185      C2190   1.400       .  A
C2185      H2192   1.083       .  S
C2186      C2187   1.410       .  A
C2187      C2188   1.404   1_565  A
C2187      N2194   1.432       .  S
C2188      C2189   1.407       .  A
C2188      H2193   1.084       .  S
C2189      C2190   1.407       .  A
C2190      N2191   1.433       .  S
N2191      H2195   1.046       .  S
N2191      H2196   1.046       .  S
N2194      H2197   1.046       .  S
N2194      H2198   1.046       .  S
C2199      C2200   1.405       .  A
C2199      C2204   1.408       .  A
C2199      H2206   1.083       .  S
C2200      C2201   1.419       .  A
C2201      C2202   1.407       .  A
C2201      N2208   1.438       .  S
C2202      C2203   1.401       .  A
C2202      H2207   1.084       .  S
C2203      C2204   1.415       .  A
C2204      N2205   1.438       .  S
N2205      H2209   1.046       .  S
N2205      H2210   1.045       .  S
N2208      H2211   1.046       .  S
N2208      H2212   1.046       .  S
C2213      C2214   1.411       .  A
C2213      C2218   1.406       .  A
C2213      H2220   1.083       .  S
C2214      C2215   1.407       .  A
C2215      C2216   1.396       .  A
C2215      N2222   1.433       .  S
C2216      C2217   1.403       .  A
C2216      H2221   1.085       .  S
C2217      C2218   1.403       .  A
C2218      N2219   1.437       .  S
N2219      H2223   1.046       .  S
N2219      H2224   1.046       .  S
N2222      H2225   1.046       .  S
N2222      H2226   1.046       .  S
C2227      C2228   1.402       .  A
C2227      C2232   1.412   1_556  A
C2227      H2234   1.084       .  S
C2228      C2229   1.417   1_556  A
C2229      C2230   1.406       .  A
C2229      N2236   1.439       .  S
C2230      C2231   1.404       .  A
C2230      H2235   1.083       .  S
C2231      C2232   1.421       .  A
C2232      N2233   1.437       .  S
N2233      H2237   1.046   1_554  S
N2233      H2238   1.046       .  S
N2236      H2239   1.046       .  S
N2236      H2240   1.045       .  S
C2241      C2242   1.408       .  A
C2241      C2246   1.411       .  A
C2241      H2248   1.083       .  S
C2242      C2243   1.408       .  A
C2243      C2244   1.402       .  A
C2243      N2250   1.432       .  S
C2244      C2245   1.409       .  A
C2244      H2249   1.083       .  S
C2245      C2246   1.415       .  A
C2246      N2247   1.437       .  S
N2247      H2251   1.046       .  S
N2247      H2252   1.046       .  S
N2250      H2253   1.046       .  S
N2250      H2254   1.046       .  S
C2255      C2256   1.405       .  A
C2255      C2260   1.405       .  A
C2255      H2262   1.084       .  S
C2256      C2257   1.410       .  A
C2257      C2258   1.405       .  A
C2257      N2264   1.438       .  S
C2258      C2259   1.405       .  A
C2258      H2263   1.084       .  S
C2259      C2260   1.414       .  A
C2260      N2261   1.432       .  S
N2261      H2265   1.044       .  S
N2261      H2266   1.046       .  S
N2264      H2267   1.046       .  S
N2264      H2268   1.046       .  S
C2269      C2270   1.399       .  A
C2269      C2274   1.399       .  A
C2269      H2276   1.084       .  S
C2270      C2271   1.415       .  A
C2271      C2272   1.408       .  A
C2271      N2278   1.438       .  S
C2272      C2273   1.402       .  A
C2272      H2277   1.084       .  S
C2273      C2274   1.413       .  A
C2274      N2275   1.433       .  S
N2275      H2279   1.046       .  S
N2275      H2280   1.046       .  S
N2278      H2281   1.046       .  S
N2278      H2282   1.046       .  S
C2283      C2284   1.401       .  A
C2283      C2288   1.405   1_655  A
C2283      H2290   1.084       .  S
C2284      C2285   1.416   1_655  A
C2285      C2286   1.409       .  A
C2285      N2292   1.438       .  S
C2286      C2287   1.406       .  A
C2286      H2291   1.083       .  S
C2287      C2288   1.419       .  A
C2288      N2289   1.438       .  S
N2289      H2293   1.046   1_455  S
N2289      H2294   1.046       .  S
N2292      H2295   1.045       .  S
N2292      H2296   1.045       .  S
C2297      C2298   1.401       .  A
C2297      C2302   1.401       .  A
C2297      H2304   1.084       .  S
C2298      C2299   1.421       .  A
C2299      C2300   1.405       .  A
C2299      N2306   1.439       .  S
C2300      C2301   1.402       .  A
C2300      H2305   1.084       .  S
C2301      C2302   1.410       .  A
C2302      N2303   1.433       .  S
N2303      H2307   1.045       .  S
N2303      H2308   1.046       .  S
N2306      H2309   1.041       .  S
N2306      H2310   1.046       .  S
C2311      C2312   1.400       .  A
C2311      C2316   1.398       .  A
C2311      H2318   1.084       .  S
C2312      C2313   1.420       .  A
C2313      C2314   1.400       .  A
C2313      N2320   1.433       .  S
C2314      C2315   1.404       .  A
C2314      H2319   1.084       .  S
C2315      C2316   1.424       .  A
C2316      N2317   1.433       .  S
N2317      H2321   1.046       .  S
N2317      H2322   1.045       .  S
N2320      H2323   1.046       .  S
N2320      H2324   1.045       .  S
C2325      C2326   1.404       .  A
C2325      C2330   1.399       .  A
C2325      H2332   1.084       .  S
C2326      C2327   1.406       .  A
C2327      C2328   1.409       .  A
C2327      N2334   1.437       .  S
C2328      C2329   1.410       .  A
C2328      H2333   1.083       .  S
C2329      C2330   1.410       .  A
C2330      N2331   1.439       .  S
N2331      H2335   1.046       .  S
N2331      H2336   1.046       .  S
N2334      H2337   1.045       .  S
N2334      H2338   1.045       .  S
C2339      C2340   1.396       .  A
C2339      C2344   1.396       .  A
C2339      H2346   1.084       .  S
C2340      C2341   1.415       .  A
C2341      C2342   1.408       .  A
C2341      N2348   1.438       .  S
C2342      C2343   1.402       .  A
C2342      H2347   1.084       .  S
C2343      C2344   1.416       .  A
C2344      N2345   1.433       .  S
N2345      H2349   1.046       .  S
N2345      H2350   1.046       .  S
N2348      H2351   1.046       .  S
N2348      H2352   1.046       .  S
C2353      C2354   1.403       .  A
C2353      C2358   1.403       .  A
C2353      H2360   1.083       .  S
C2354      C2355   1.420       .  A
C2355      C2356   1.405       .  A
C2355      N2362   1.438   1_565  S
C2356      C2357   1.397       .  A
C2356      H2361   1.084       .  S
C2357      C2358   1.413       .  A
C2358      N2359   1.439       .  S
N2359      H2363   1.046       .  S
N2359      H2364   1.046       .  S
N2362      H2365   1.046       .  S
N2362      H2366   1.046       .  S
C2367      C2368   1.410       .  A
C2367      C2372   1.400       .  A
C2367      H2374   1.083       .  S
C2368      C2369   1.411       .  A
C2369      C2370   1.404       .  A
C2369      N2376   1.438       .  S
C2370      C2371   1.407       .  A
C2370      H2375   1.084       .  S
C2371      C2372   1.407       .  A
C2372      N2373   1.439       .  S
N2373      H2377   1.046       .  S
N2373      H2378   1.045       .  S
N2376      H2379   1.046       .  S
N2376      H2380   1.046       .  S
C2381      C2382   1.402       .  A
C2381      C2386   1.398       .  A
C2381      H2388   1.084       .  S
C2382      C2383   1.420       .  A
C2383      C2384   1.409       .  A
C2383      N2390   1.438       .  S
C2384      C2385   1.400       .  A
C2384      H2389   1.084       .  S
C2385      C2386   1.417       .  A
C2386      N2387   1.433       .  S
N2387      H2391   1.044       .  S
N2387      H2392   1.046       .  S
N2390      H2393   1.046       .  S
N2390      H2394   1.046       .  S
C2395      C2396   1.402       .  A
C2395      C2400   1.397       .  A
C2395      H2402   1.084       .  S
C2396      C2397   1.418       .  A
C2397      C2398   1.403       .  A
C2397      N2404   1.438       .  S
C2398      C2399   1.398       .  A
C2398      H2403   1.084       .  S
C2399      C2400   1.416       .  A
C2400      N2401   1.433       .  S
N2401      H2405   1.046       .  S
N2401      H2406   1.044       .  S
N2404      H2407   1.046       .  S
N2404      H2408   1.046       .  S
C2409      C2410   1.400       .  A
C2409      C2414   1.411       .  A
C2409      H2416   1.084       .  S
C2410      C2411   1.417       .  A
C2411      C2412   1.394       .  A
C2411      N2418   1.434       .  S
C2412      C2413   1.400       .  A
C2412      H2417   1.084       .  S
C2413      C2414   1.418       .  A
C2414      N2415   1.437       .  S
N2415      H2419   1.046       .  S
N2415      H2420   1.046       .  S
N2418      H2421   1.045       .  S
N2418      H2422   1.044       .  S
C2423      C2424   1.410       .  A
C2423      C2428   1.397       .  A
C2423      H2430   1.083       .  S
C2424      C2425   1.412       .  A
C2425      C2426   1.406       .  A
C2425      N2432   1.437       .  S
C2426      C2427   1.406       .  A
C2426      H2431   1.084       .  S
C2427      C2428   1.402       .  A
C2428      N2429   1.433       .  S
N2429      H2433   1.046       .  S
N2429      H2434   1.046       .  S
N2432      H2435   1.046       .  S
N2432      H2436   1.046       .  S
C2437      C2438   1.404       .  A
C2437      C2442   1.408       .  A
C2437      H2444   1.084       .  S
C2438      C2439   1.414       .  A
C2439      C2440   1.398       .  A
C2439      N2446   1.440   1_655  S
C2440      C2441   1.404       .  A
C2440      H2445   1.084   1_655  S
C2441      C2442   1.412       .  A
C2442      N2443   1.437       .  S
N2443      H2447   1.046       .  S
N2443      H2448   1.045       .  S
N2446      H2449   1.044   1_455  S
N2446      H2450   1.046       .  S
C2451      C2452   1.401       .  A
C2451      C2456   1.397       .  A
C2451      H2458   1.084       .  S
C2452      C2453   1.419       .  A
C2453      C2454   1.409       .  A
C2453      N2460   1.438       .  S
C2454      C2455   1.399       .  A
C2454      H2459   1.084       .  S
C2455      C2456   1.415       .  A
C2456      N2457   1.434       .  S
N2457      H2461   1.046       .  S
N2457      H2462   1.044       .  S
N2460      H2463   1.046       .  S
N2460      H2464   1.046       .  S
C2465      C2466   1.407       .  A
C2465      C2470   1.405       .  A
C2465      H2472   1.084       .  S
C2466      C2467   1.408       .  A
C2467      C2468   1.406       .  A
C2467      N2474   1.438       .  S
C2468      C2469   1.410       .  A
C2468      H2473   1.083       .  S
C2469      C2470   1.417       .  A
C2470      N2471   1.432       .  S
N2471      H2475   1.045       .  S
N2471      H2476   1.045       .  S
N2474      H2477   1.046       .  S
N2474      H2478   1.046       .  S
C2479      C2480   1.396       .  A
C2479      C2484   1.403       .  A
C2479      H2486   1.084       .  S
C2480      C2481   1.414       .  A
C2481      C2482   1.405       .  A
C2481      N2488   1.438       .  S
C2482      C2483   1.401       .  A
C2482      H2487   1.083       .  S
C2483      C2484   1.421       .  A
C2484      N2485   1.439       .  S
N2485      H2489   1.046       .  S
N2485      H2490   1.046       .  S
N2488      H2491   1.046       .  S
N2488      H2492   1.045       .  S
C2493      C2494   1.405       .  A
C2493      C2498   1.411       .  A
C2493      H2500   1.084       .  S
C2494      C2495   1.414       .  A
C2495      C2496   1.399       .  A
C2495      N2502   1.440       .  S
C2496      C2497   1.405       .  A
C2496      H2501   1.084       .  S
C2497      C2498   1.412       .  A
C2498      N2499   1.437       .  S
N2499      H2503   1.046       .  S
N2499      H2504   1.045       .  S
N2502      H2505   1.043       .  S
N2502      H2506   1.046       .  S
C2507      C2508   1.398       .  A
C2507      C2512   1.401       .  A
C2507      H2514   1.084       .  S
C2508      C2509   1.416       .  A
C2509      C2510   1.405       .  A
C2509      N2516   1.439       .  S
C2510      C2511   1.402       .  A
C2510      H2515   1.084       .  S
C2511      C2512   1.424       .  A
C2512      N2513   1.433       .  S
N2513      H2517   1.044       .  S
N2513      H2518   1.046       .  S
N2516      H2519   1.046       .  S
N2516      H2520   1.046       .  S
C2521      C2522   1.402       .  A
C2521      C2526   1.402       .  A
C2521      H2528   1.083       .  S
C2522      C2523   1.420       .  A
C2523      C2524   1.402       .  A
C2523      N2530   1.439       .  S
C2524      C2525   1.397       .  A
C2524      H2529   1.084       .  S
C2525      C2526   1.414       .  A
C2526      N2527   1.439       .  S
N2527      H2531   1.046       .  S
N2527      H2532   1.046       .  S
N2530      H2533   1.046       .  S
N2530      H2534   1.045       .  S
C2535      C2536   1.405       .  A
C2535      C2540   1.411       .  A
C2535      H2542   1.083       .  S
C2536      C2537   1.416   1_545  A
C2537      C2538   1.400   1_565  A
C2537      N2544   1.433       .  S
C2538      C2539   1.402       .  A
C2538      H2543   1.084       .  S
C2539      C2540   1.419       .  A
C2540      N2541   1.438       .  S
N2541      H2545   1.046       .  S
N2541      H2546   1.046       .  S
N2544      H2547   1.046       .  S
N2544      H2548   1.046   1_655  S
C2549      C2550   1.413       .  A
C2549      C2554   1.408       .  A
C2549      H2556   1.083       .  S
C2550      C2551   1.408       .  A
C2551      C2552   1.402       .  A
C2551      N2558   1.432       .  S
C2552      C2553   1.408       .  A
C2552      H2557   1.084       .  S
C2553      C2554   1.408       .  A
C2554      N2555   1.438       .  S
N2555      H2559   1.046   1_556  S
N2555      H2560   1.045       .  S
N2558      H2561   1.046       .  S
N2558      H2562   1.046       .  S
C2563      C2564   1.403       .  A
C2563      C2568   1.411       .  A
C2563      H2570   1.084       .  S
C2564      C2565   1.408       .  A
C2565      C2566   1.396       .  A
C2565      N2572   1.433       .  S
C2566      C2567   1.400       .  A
C2566      H2571   1.084       .  S
C2567      C2568   1.414       .  A
C2568      N2569   1.438       .  S
N2569      H2573   1.045       .  S
N2569      H2574   1.046       .  S
N2572      H2575   1.046       .  S
N2572      H2576   1.046       .  S
C2577      C2578   1.408       .  A
C2577      C2582   1.401       .  A
C2577      H2584   1.083       .  S
C2578      C2579   1.414       .  A
C2579      C2580   1.406       .  A
C2579      N2586   1.438       .  S
C2580      C2581   1.404       .  A
C2580      H2585   1.084       .  S
C2581      C2582   1.405       .  A
C2582      N2583   1.438       .  S
N2583      H2587   1.046       .  S
N2583      H2588   1.046       .  S
N2586      H2589   1.046       .  S
N2586      H2590   1.046       .  S
C2591      C2592   1.407       .  A
C2591      C2596   1.413       .  A
C2591      H2598   1.084       .  S
C2592      C2593   1.411       .  A
C2593      C2594   1.397       .  A
C2593      N2600   1.433   1_556  S
C2594      C2595   1.409       .  A
C2594      H2599   1.084       .  S
C2595      C2596   1.414       .  A
C2596      N2597   1.437       .  S
N2597      H2601   1.046       .  S
N2597      H2602   1.046       .  S
N2600      H2603   1.046       .  S
N2600      H2604   1.044       .  S
C2605      C2606   1.400       .  A
C2605      C2610   1.400       .  A
C2605      H2612   1.084       .  S
C2606      C2607   1.418       .  A
C2607      C2608   1.401       .  A
C2607      N2614   1.433       .  S
C2608      C2609   1.400       .  A
C2608      H2613   1.084       .  S
C2609      C2610   1.415       .  A
C2610      N2611   1.433       .  S
N2611      H2615   1.046       .  S
N2611      H2616   1.046       .  S
N2614      H2617   1.046       .  S
N2614      H2618   1.046   1_565  S
C2619      C2620   1.410       .  A
C2619      C2624   1.413       .  A
C2619      H2626   1.083       .  S
C2620      C2621   1.405       .  A
C2621      C2622   1.402       .  A
C2621      N2628   1.432   1_545  S
C2622      C2623   1.411       .  A
C2622      H2627   1.083   1_545  S
C2623      C2624   1.414       .  A
C2624      N2625   1.437       .  S
N2625      H2629   1.046       .  S
N2625      H2630   1.045       .  S
N2628      H2631   1.046       .  S
N2628      H2632   1.046   1_455  S
C2633      C2634   1.405       .  A
C2633      C2638   1.403       .  A
C2633      H2640   1.084       .  S
C2634      C2635   1.413       .  A
C2635      C2636   1.402       .  A
C2635      N2642   1.432       .  S
C2636      C2637   1.404       .  A
C2636      H2641   1.084       .  S
C2637      C2638   1.407       .  A
C2638      N2639   1.438       .  S
N2639      H2643   1.046   1_455  S
N2639      H2644   1.046       .  S
N2642      H2645   1.046       .  S
N2642      H2646   1.045       .  S
C2647      C2648   1.402       .  A
C2647      C2652   1.403       .  A
C2647      H2654   1.083       .  S
C2648      C2649   1.421       .  A
C2649      C2650   1.401       .  A
C2649      N2656   1.439       .  S
C2650      C2651   1.397       .  A
C2650      H2655   1.084       .  S
C2651      C2652   1.416       .  A
C2652      N2653   1.439       .  S
N2653      H2657   1.045       .  S
N2653      H2658   1.046       .  S
N2656      H2659   1.046       .  S
N2656      H2660   1.046       .  S
C2661      C2662   1.409       .  A
C2661      C2666   1.412       .  A
C2661      H2668   1.084       .  S
C2662      C2663   1.406       .  A
C2663      C2664   1.399       .  A
C2663      N2670   1.433   1_565  S
C2664      C2665   1.406       .  A
C2664      H2669   1.084       .  S
C2665      C2666   1.411       .  A
C2666      N2667   1.437       .  S
N2667      H2671   1.046       .  S
N2667      H2672   1.046       .  S
N2670      H2673   1.046   1_545  S
N2670      H2674   1.046       .  S
C2675      C2676   1.399       .  A
C2675      C2680   1.402       .  A
C2675      H2682   1.084       .  S
C2676      C2677   1.416       .  A
C2677      C2678   1.401       .  A
C2677      N2684   1.439       .  S
C2678      C2679   1.402       .  A
C2678      H2683   1.083       .  S
C2679      C2680   1.419       .  A
C2680      N2681   1.438       .  S
N2681      H2685   1.046       .  S
N2681      H2686   1.046       .  S
N2684      H2687   1.046       .  S
N2684      H2688   1.046       .  S
C2689      C2690   1.404       .  A
C2689      C2694   1.401       .  A
C2689      H2696   1.084       .  S
C2690      C2691   1.410       .  A
C2691      C2692   1.402       .  A
C2691      N2698   1.432       .  S
C2692      C2693   1.409       .  A
C2692      H2697   1.084       .  S
C2693      C2694   1.412       .  A
C2694      N2695   1.439       .  S
N2695      H2699   1.046       .  S
N2695      H2700   1.046   1_655  S
N2698      H2701   1.046       .  S
N2698      H2702   1.045       .  S
C2703      C2704   1.405       .  A
C2703      C2708   1.396       .  A
C2703      H2710   1.084       .  S
C2704      C2705   1.407       .  A
C2705      C2706   1.412       .  A
C2705      N2712   1.437       .  S
C2706      C2707   1.410       .  A
C2706      H2711   1.083       .  S
C2707      C2708   1.406       .  A
C2708      N2709   1.433       .  S
N2709      H2713   1.046       .  S
N2709      H2714   1.046       .  S
N2712      H2715   1.046       .  S
N2712      H2716   1.046       .  S
C2717      C2718   1.411       .  A
C2717      C2722   1.402       .  A
C2717      H2724   1.083       .  S
C2718      C2719   1.406       .  A
C2719      C2720   1.397       .  A
C2719      N2726   1.432       .  S
C2720      C2721   1.406       .  A
C2720      H2725   1.084       .  S
C2721      C2722   1.405       .  A
C2722      N2723   1.438       .  S
N2723      H2727   1.046       .  S
N2723      H2728   1.046       .  S
N2726      H2729   1.042       .  S
N2726      H2730   1.050       .  S
C2731      C2732   1.403       .  A
C2731      C2736   1.406       .  A
C2731      H2738   1.084       .  S
C2732      C2733   1.417   1_554  A
C2733      C2734   1.406   1_556  A
C2733      N2740   1.433       .  S
C2734      C2735   1.403       .  A
C2734      H2739   1.084   1_554  S
C2735      C2736   1.416       .  A
C2736      N2737   1.432       .  S
N2737      H2741   1.046   1_545  S
N2737      H2742   1.046       .  S
N2740      H2743   1.045   1_545  S
N2740      H2744   1.046       .  S
C2745      C2746   1.404       .  A
C2745      C2750   1.396       .  A
C2745      H2752   1.084       .  S
C2746      C2747   1.408       .  A
C2747      C2748   1.396       .  A
C2747      N2754   1.433       .  S
C2748      C2749   1.410       .  A
C2748      H2753   1.084       .  S
C2749      C2750   1.415       .  A
C2750      N2751   1.432       .  S
N2751      H2755   1.045       .  S
N2751      H2756   1.046       .  S
N2754      H2757   1.045       .  S
N2754      H2758   1.045       .  S
C2759      C2760   1.397       .  A
C2759      C2764   1.398       .  A
C2759      H2766   1.084       .  S
C2760      C2761   1.415       .  A
C2761      C2762   1.408       .  A
C2761      N2768   1.438       .  S
C2762      C2763   1.402       .  A
C2762      H2767   1.084       .  S
C2763      C2764   1.416       .  A
C2764      N2765   1.434       .  S
N2765      H2769   1.046       .  S
N2765      H2770   1.046   1_556  S
N2768      H2771   1.045       .  S
N2768      H2772   1.046       .  S
C2773      C2774   1.398       .  A
C2773      C2778   1.399       .  A
C2773      H2780   1.084       .  S
C2774      C2775   1.417       .  A
C2775      C2776   1.399       .  A
C2775      N2782   1.433       .  S
C2776      C2777   1.399       .  A
C2776      H2781   1.084       .  S
C2777      C2778   1.418       .  A
C2778      N2779   1.433       .  S
N2779      H2783   1.046       .  S
N2779      H2784   1.046       .  S
N2782      H2785   1.046       .  S
N2782      H2786   1.046       .  S
C2787      C2788   1.404       .  A
C2787      C2792   1.394       .  A
C2787      H2794   1.085       .  S
C2788      C2789   1.418       .  A
C2789      C2790   1.405       .  A
C2789      N2796   1.439       .  S
C2790      C2791   1.405       .  A
C2790      H2795   1.084       .  S
C2791      C2792   1.411       .  A
C2792      N2793   1.434       .  S
N2793      H2797   1.044       .  S
N2793      H2798   1.046       .  S
N2796      H2799   1.042       .  S
N2796      H2800   1.046       .  S
C2801      C2802   1.411       .  A
C2801      C2806   1.399       .  A
C2801      H2808   1.084       .  S
C2802      C2803   1.414       .  A
C2803      C2804   1.397       .  A
C2803      N2810   1.432       .  S
C2804      C2805   1.408       .  A
C2804      H2809   1.084       .  S
C2805      C2806   1.404       .  A
C2806      N2807   1.432       .  S
N2807      H2811   1.046       .  S
N2807      H2812   1.046       .  S
N2810      H2813   1.045       .  S
N2810      H2814   1.046       .  S
C2815      C2816   1.404       .  A
C2815      C2820   1.403       .  A
C2815      H2822   1.085       .  S
C2816      C2817   1.406       .  A
C2817      C2818   1.402       .  A
C2817      N2824   1.432       .  S
C2818      C2819   1.413       .  A
C2818      H2823   1.084       .  S
C2819      C2820   1.412       .  A
C2820      N2821   1.438       .  S
N2821      H2825   1.046       .  S
N2821      H2826   1.045       .  S
N2824      H2827   1.046       .  S
N2824      H2828   1.045       .  S
C2829      C2830   1.409       .  A
C2829      C2834   1.406       .  A
C2829      H2836   1.083       .  S
C2830      C2831   1.406       .  A
C2831      C2832   1.398       .  A
C2831      N2838   1.439       .  S
C2832      C2833   1.411       .  A
C2832      H2837   1.083       .  S
C2833      C2834   1.410       .  A
C2834      N2835   1.437       .  S
N2835      H2839   1.046       .  S
N2835      H2840   1.045       .  S
N2838      H2841   1.046       .  S
N2838      H2842   1.046       .  S
C2843      C2844   1.410   1_556  A
C2843      C2848   1.404   1_556  A
C2843      H2850   1.083       .  S
C2844      C2845   1.409       .  A
C2845      C2846   1.406       .  A
C2845      N2852   1.432       .  S
C2846      C2847   1.408       .  A
C2846      H2851   1.084       .  S
C2847      C2848   1.409       .  A
C2848      N2849   1.438   1_554  S
N2849      H2853   1.046       .  S
N2849      H2854   1.046       .  S
N2852      H2855   1.046       .  S
N2852      H2856   1.046       .  S
C2857      C2858   1.408       .  A
C2857      C2862   1.408       .  A
C2857      H2864   1.084       .  S
C2858      C2859   1.407       .  A
C2859      C2860   1.399       .  A
C2859      N2866   1.439       .  S
C2860      C2861   1.407       .  A
C2860      H2865   1.084       .  S
C2861      C2862   1.409       .  A
C2862      N2863   1.437       .  S
N2863      H2867   1.046       .  S
N2863      H2868   1.045       .  S
N2866      H2869   1.046       .  S
N2866      H2870   1.046       .  S
C2871      C2872   1.406       .  A
C2871      C2876   1.400       .  A
C2871      H2878   1.084       .  S
C2872      C2873   1.408       .  A
C2873      C2874   1.392       .  A
C2873      N2880   1.432       .  S
C2874      C2875   1.409       .  A
C2874      H2879   1.084       .  S
C2875      C2876   1.415       .  A
C2876      N2877   1.432       .  S
N2877      H2881   1.045       .  S
N2877      H2882   1.046       .  S
N2880      H2883   1.046       .  S
N2880      H2884   1.043       .  S
C2885      C2886   1.401       .  A
C2885      C2890   1.395       .  A
C2885      H2892   1.084       .  S
C2886      C2887   1.419       .  A
C2887      C2888   1.410       .  A
C2887      N2894   1.438       .  S
C2888      C2889   1.401       .  A
C2888      H2893   1.084       .  S
C2889      C2890   1.418       .  A
C2890      N2891   1.434       .  S
N2891      H2895   1.044   1_556  S
N2891      H2896   1.045   1_556  S
N2894      H2897   1.045       .  S
N2894      H2898   1.046       .  S
C2899      C2900   1.403       .  A
C2899      C2904   1.409       .  A
C2899      H2906   1.084       .  S
C2900      C2901   1.417       .  A
C2901      C2902   1.396       .  A
C2901      N2908   1.441       .  S
C2902      C2903   1.403       .  A
C2902      H2907   1.085       .  S
C2903      C2904   1.412       .  A
C2904      N2905   1.437       .  S
N2905      H2909   1.046       .  S
N2905      H2910   1.046       .  S
N2908      H2911   1.041       .  S
N2908      H2912   1.046   1_554  S
C2913      C2914   1.410       .  A
C2913      C2918   1.403       .  A
C2913      H2920   1.083       .  S
C2914      C2915   1.414       .  A
C2915      C2916   1.398       .  A
C2915      N2922   1.432       .  S
C2916      C2917   1.408       .  A
C2916      H2921   1.084       .  S
C2917      C2918   1.409       .  A
C2918      N2919   1.438       .  S
N2919      H2923   1.046       .  S
N2919      H2924   1.046       .  S
N2922      H2925   1.045       .  S
N2922      H2926   1.045       .  S
C2927      C2928   1.399       .  A
C2927      C2932   1.406       .  A
C2927      H2934   1.084       .  S
C2928      C2929   1.415       .  A
C2929      C2930   1.409       .  A
C2929      N2936   1.438       .  S
C2930      C2931   1.406       .  A
C2930      H2935   1.083       .  S
C2931      C2932   1.421       .  A
C2932      N2933   1.438       .  S
N2933      H2937   1.046       .  S
N2933      H2938   1.046   1_545  S
N2936      H2939   1.046       .  S
N2936      H2940   1.046       .  S
C2941      C2942   1.401       .  A
C2941      C2946   1.397       .  A
C2941      H2948   1.084       .  S
C2942      C2943   1.418       .  A
C2943      C2944   1.400       .  A
C2943      N2950   1.433       .  S
C2944      C2945   1.396       .  A
C2944      H2949   1.084       .  S
C2945      C2946   1.412       .  A
C2946      N2947   1.433       .  S
N2947      H2951   1.046       .  S
N2947      H2952   1.046       .  S
N2950      H2953   1.046       .  S
N2950      H2954   1.046       .  S
C2955      C2956   1.407       .  A
C2955      C2960   1.409       .  A
C2955      H2962   1.083       .  S
C2956      C2957   1.407       .  A
C2957      C2958   1.407   1_545  A
C2957      N2964   1.432   1_545  S
C2958      C2959   1.411   1_565  A
C2958      H2963   1.083       .  S
C2959      C2960   1.416       .  A
C2960      N2961   1.438       .  S
N2961      H2965   1.046       .  S
N2961      H2966   1.045       .  S
N2964      H2967   1.046       .  S
N2964      H2968   1.046       .  S
C2969      C2970   1.406       .  A
C2969      C2974   1.410       .  A
C2969      H2976   1.084       .  S
C2970      C2971   1.408       .  A
C2971      C2972   1.393       .  A
C2971      N2978   1.431       .  S
C2972      C2973   1.408       .  A
C2972      H2977   1.084       .  S
C2973      C2974   1.412       .  A
C2974      N2975   1.437       .  S
N2975      H2979   1.046       .  S
N2975      H2980   1.045       .  S
N2978      H2981   1.045       .  S
N2978      H2982   1.044       .  S
C2983      C2984   1.400       .  A
C2983      C2988   1.402       .  A
C2983      H2990   1.084       .  S
C2984      C2985   1.418       .  A
C2985      C2986   1.403       .  A
C2985      N2992   1.433       .  S
C2986      C2987   1.400       .  A
C2986      H2991   1.084       .  S
C2987      C2988   1.417       .  A
C2988      N2989   1.433       .  S
N2989      H2993   1.046       .  S
N2989      H2994   1.046       .  S
N2992      H2995   1.046       .  S
N2992      H2996   1.046       .  S
C2997      C2998   1.405       .  A
C2997      C3002   1.410       .  A
C2997      H3004   1.083   1_545  S
C2998      C2999   1.421       .  A
C2999      C3000   1.408       .  A
C2999      N3006   1.438       .  S
C3000      C3001   1.400       .  A
C3000      H3005   1.084       .  S
C3001      C3002   1.417       .  A
C3002      N3003   1.438   1_545  S
N3003      H3007   1.046       .  S
N3003      H3008   1.046       .  S
N3006      H3009   1.046       .  S
N3006      H3010   1.046       .  S
C3011      C3012   1.409       .  A
C3011      C3016   1.406       .  A
C3011      H3018   1.083       .  S
C3012      C3013   1.413       .  A
C3013      C3014   1.398       .  A
C3013      N3020   1.433       .  S
C3014      C3015   1.409       .  A
C3014      H3019   1.084       .  S
C3015      C3016   1.410       .  A
C3016      N3017   1.438       .  S
N3017      H3021   1.046       .  S
N3017      H3022   1.045       .  S
N3020      H3023   1.045       .  S
N3020      H3024   1.045       .  S
C3025      C3026   1.406       .  A
C3025      C3030   1.396       .  A
C3025      H3032   1.084       .  S
C3026      C3027   1.409       .  A
C3027      C3028   1.413       .  A
C3027      N3034   1.437       .  S
C3028      C3029   1.411       .  A
C3028      H3033   1.084       .  S
C3029      C3030   1.412       .  A
C3030      N3031   1.433       .  S
N3031      H3035   1.045       .  S
N3031      H3036   1.046       .  S
N3034      H3037   1.045       .  S
N3034      H3038   1.046       .  S
C3039      C3040   1.409       .  A
C3039      C3044   1.400       .  A
C3039      H3046   1.084       .  S
C3040      C3041   1.410       .  A
C3041      C3042   1.404       .  A
C3041      N3048   1.438       .  S
C3042      C3043   1.407       .  A
C3042      H3047   1.084       .  S
C3043      C3044   1.410       .  A
C3044      N3045   1.432       .  S
N3045      H3049   1.046       .  S
N3045      H3050   1.045       .  S
N3048      H3051   1.045       .  S
N3048      H3052   1.046       .  S
C3053      C3054   1.401       .  A
C3053      C3058   1.396       .  A
C3053      H3060   1.084       .  S
C3054      C3055   1.418       .  A
C3055      C3056   1.404       .  A
C3055      N3062   1.438   1_565  S
C3056      C3057   1.398       .  A
C3056      H3061   1.084       .  S
C3057      C3058   1.415       .  A
C3058      N3059   1.433       .  S
N3059      H3063   1.046       .  S
N3059      H3064   1.044       .  S
N3062      H3065   1.046       .  S
N3062      H3066   1.046       .  S
C3067      C3068   1.402       .  A
C3067      C3072   1.410   1_545  A
C3067      H3074   1.084   1_545  S
C3068      C3069   1.414       .  A
C3069      C3070   1.400       .  A
C3069      N3076   1.433       .  S
C3070      C3071   1.402       .  A
C3070      H3075   1.084       .  S
C3071      C3072   1.421   1_545  A
C3072      N3073   1.438       .  S
N3073      H3077   1.046       .  S
N3073      H3078   1.046       .  S
N3076      H3079   1.046       .  S
N3076      H3080   1.046       .  S
C3081      C3082   1.404       .  A
C3081      C3086   1.400   1_565  A
C3081      H3088   1.084   1_565  S
C3082      C3083   1.413       .  A
C3083      C3084   1.409       .  A
C3083      N3090   1.437       .  S
C3084      C3085   1.402       .  A
C3084      H3089   1.084       .  S
C3085      C3086   1.408   1_565  A
C3086      N3087   1.439       .  S
N3087      H3091   1.046       .  S
N3087      H3092   1.046       .  S
N3090      H3093   1.045       .  S
N3090      H3094   1.046       .  S
C3095      C3096   1.409       .  A
C3095      C3100   1.403       .  A
C3095      H3102   1.084       .  S
C3096      C3097   1.411       .  A
C3097      C3098   1.404       .  A
C3097      N3104   1.438       .  S
C3098      C3099   1.409       .  A
C3098      H3103   1.083       .  S
C3099      C3100   1.408       .  A
C3100      N3101   1.432       .  S
N3101      H3105   1.046       .  S
N3101      H3106   1.046       .  S
N3104      H3107   1.046       .  S
N3104      H3108   1.045       .  S
C3109      C3110   1.402       .  A
C3109      C3114   1.401       .  A
C3109      H3116   1.082       .  S
C3110      C3111   1.404       .  A
C3111      C3112   1.409       .  A
C3111      N3118   1.437       .  S
C3112      C3113   1.413       .  A
C3112      H3117   1.083       .  S
C3113      C3114   1.410       .  A
C3114      N3115   1.432       .  S
N3115      H3119   1.046       .  S
N3115      H3120   1.046       .  S
N3118      H3121   1.045       .  S
N3118      H3122   1.046       .  S
C3123      C3124   1.410       .  A
C3123      C3128   1.415       .  A
C3123      H3130   1.083       .  S
C3124      C3125   1.405       .  A
C3125      C3126   1.395       .  A
C3125      N3132   1.433       .  S
C3126      C3127   1.405       .  A
C3126      H3131   1.083       .  S
C3127      C3128   1.410       .  A
C3128      N3129   1.437       .  S
N3129      H3133   1.046       .  S
N3129      H3134   1.045       .  S
N3132      H3135   1.046       .  S
N3132      H3136   1.045       .  S
C3137      C3138   1.400       .  A
C3137      C3142   1.399       .  A
C3137      H3144   1.084       .  S
C3138      C3139   1.418       .  A
C3139      C3140   1.395       .  A
C3139      N3146   1.433       .  S
C3140      C3141   1.402       .  A
C3140      H3145   1.084       .  S
C3141      C3142   1.416       .  A
C3142      N3143   1.433       .  S
N3143      H3147   1.046       .  S
N3143      H3148   1.046       .  S
N3146      H3149   1.046       .  S
N3146      H3150   1.045       .  S
C3151      C3152   1.410       .  A
C3151      C3156   1.403       .  A
C3151      H3158   1.084       .  S
C3152      C3153   1.410       .  A
C3153      C3154   1.400       .  A
C3153      N3160   1.438       .  S
C3154      C3155   1.407       .  A
C3154      H3159   1.083       .  S
C3155      C3156   1.405       .  A
C3156      N3157   1.432       .  S
N3157      H3161   1.046       .  S
N3157      H3162   1.046       .  S
N3160      H3163   1.046       .  S
N3160      H3164   1.046       .  S
C3165      C3166   1.405       .  A
C3165      C3170   1.399       .  A
C3165      H3172   1.084       .  S
C3166      C3167   1.407       .  A
C3167      C3168   1.409       .  A
C3167      N3174   1.432       .  S
C3168      C3169   1.410       .  A
C3168      H3173   1.084       .  S
C3169      C3170   1.408       .  A
C3170      N3171   1.433       .  S
N3171      H3175   1.046       .  S
N3171      H3176   1.046       .  S
N3174      H3177   1.045       .  S
N3174      H3178   1.046       .  S
C3179      C3180   1.410       .  A
C3179      C3184   1.403       .  A
C3179      H3186   1.083       .  S
C3180      C3181   1.408       .  A
C3181      C3182   1.398       .  A
C3181      N3188   1.433       .  S
C3182      C3183   1.406       .  A
C3182      H3187   1.084       .  S
C3183      C3184   1.407       .  A
C3184      N3185   1.438       .  S
N3185      H3189   1.045       .  S
N3185      H3190   1.046       .  S
N3188      H3191   1.046       .  S
N3188      H3192   1.045       .  S
C3193      C3194   1.402       .  A
C3193      C3198   1.412       .  A
C3193      H3200   1.083       .  S
C3194      C3195   1.416       .  A
C3195      C3196   1.402       .  A
C3195      N3202   1.433       .  S
C3196      C3197   1.402       .  A
C3196      H3201   1.084       .  S
C3197      C3198   1.422       .  A
C3198      N3199   1.438       .  S
N3199      H3203   1.046       .  S
N3199      H3204   1.046       .  S
N3202      H3205   1.046       .  S
N3202      H3206   1.046       .  S
C3207      C3208   1.402       .  A
C3207      C3212   1.402       .  A
C3207      H3214   1.084       .  S
C3208      C3209   1.417       .  A
C3209      C3210   1.403       .  A
C3209      N3216   1.439       .  S
C3210      C3211   1.399       .  A
C3210      H3215   1.084       .  S
C3211      C3212   1.418       .  A
C3212      N3213   1.433       .  S
N3213      H3217   1.044       .  S
N3213      H3218   1.046       .  S
N3216      H3219   1.046       .  S
N3216      H3220   1.046       .  S
C3221      C3222   1.405       .  A
C3221      C3226   1.393       .  A
C3221      H3228   1.084       .  S
C3222      C3223   1.407       .  A
C3223      C3224   1.404       .  A
C3223      N3230   1.438       .  S
C3224      C3225   1.411       .  A
C3224      H3229   1.083       .  S
C3225      C3226   1.416       .  A
C3226      N3227   1.433       .  S
N3227      H3231   1.044       .  S
N3227      H3232   1.046       .  S
N3230      H3233   1.046       .  S
N3230      H3234   1.045       .  S
C3235      C3236   1.398       .  A
C3235      C3240   1.390       .  A
C3235      H3242   1.085       .  S
C3236      C3237   1.412       .  A
C3237      C3238   1.411       .  A
C3237      N3244   1.438       .  S
C3238      C3239   1.405       .  A
C3238      H3243   1.084       .  S
C3239      C3240   1.415       .  A
C3240      N3241   1.434       .  S
N3241      H3245   1.044       .  S
N3241      H3246   1.046       .  S
N3244      H3247   1.046       .  S
N3244      H3248   1.046       .  S
C3249      C3250   1.403       .  A
C3249      C3254   1.400       .  A
C3249      H3256   1.084       .  S
C3250      C3251   1.408       .  A
C3251      C3252   1.401       .  A
C3251      N3258   1.433       .  S
C3252      C3253   1.412       .  A
C3252      H3257   1.084       .  S
C3253      C3254   1.414       .  A
C3254      N3255   1.438       .  S
N3255      H3259   1.046       .  S
N3255      H3260   1.046       .  S
N3258      H3261   1.046       .  S
N3258      H3262   1.045       .  S
C3263      C3264   1.402       .  A
C3263      C3268   1.394       .  A
C3263      H3270   1.084       .  S
C3264      C3265   1.420       .  A
C3265      C3266   1.412       .  A
C3265      N3272   1.437       .  S
C3266      C3267   1.400       .  A
C3266      H3271   1.084       .  S
C3267      C3268   1.416       .  A
C3268      N3269   1.434       .  S
N3269      H3273   1.044       .  S
N3269      H3274   1.045       .  S
N3272      H3275   1.046       .  S
N3272      H3276   1.046       .  S
C3277      C3278   1.400       .  A
C3277      C3282   1.401       .  A
C3277      H3284   1.084       .  S
C3278      C3279   1.417       .  A
C3279      C3280   1.403       .  A
C3279      N3286   1.439       .  S
C3280      C3281   1.401       .  A
C3280      H3285   1.083       .  S
C3281      C3282   1.417       .  A
C3282      N3283   1.433       .  S
N3283      H3287   1.046       .  S
N3283      H3288   1.046       .  S
N3286      H3289   1.046       .  S
N3286      H3290   1.046       .  S
C3291      C3292   1.408       .  A
C3291      C3296   1.407       .  A
C3291      H3298   1.083       .  S
C3292      C3293   1.411       .  A
C3293      C3294   1.411       .  A
C3293      N3300   1.437       .  S
C3294      C3295   1.411       .  A
C3294      H3299   1.083       .  S
C3295      C3296   1.414       .  A
C3296      N3297   1.438       .  S
N3297      H3301   1.046       .  S
N3297      H3302   1.046       .  S
N3300      H3303   1.045       .  S
N3300      H3304   1.046       .  S
C3305      C3306   1.412       .  A
C3305      C3310   1.410       .  A
C3305      H3312   1.083       .  S
C3306      C3307   1.413       .  A
C3307      C3308   1.404       .  A
C3307      N3314   1.438       .  S
C3308      C3309   1.404       .  A
C3308      H3313   1.084       .  S
C3309      C3310   1.406       .  A
C3310      N3311   1.437       .  S
N3311      H3315   1.046       .  S
N3311      H3316   1.046       .  S
N3314      H3317   1.046       .  S
N3314      H3318   1.045       .  S
C3319      C3320   1.400       .  A
C3319      C3324   1.395       .  A
C3319      H3326   1.084       .  S
C3320      C3321   1.411       .  A
C3321      C3322   1.408       .  A
C3321      N3328   1.438       .  S
C3322      C3323   1.404       .  A
C3322      H3327   1.084       .  S
C3323      C3324   1.416       .  A
C3324      N3325   1.433       .  S
N3325      H3329   1.044       .  S
N3325      H3330   1.046       .  S
N3328      H3331   1.046       .  S
N3328      H3332   1.045       .  S
C3333      C3334   1.400       .  A
C3333      C3338   1.406       .  A
C3333      H3340   1.084       .  S
C3334      C3335   1.413       .  A
C3335      C3336   1.403       .  A
C3335      N3342   1.439       .  S
C3336      C3337   1.404       .  A
C3336      H3341   1.083       .  S
C3337      C3338   1.420       .  A
C3338      N3339   1.438       .  S
N3339      H3343   1.046       .  S
N3339      H3344   1.046       .  S
N3342      H3345   1.046       .  S
N3342      H3346   1.046       .  S
C3347      C3348   1.412       .  A
C3347      C3352   1.406       .  A
C3347      H3354   1.083       .  S
C3348      C3349   1.416       .  A
C3349      C3350   1.394       .  A
C3349      N3356   1.432       .  S
C3350      C3351   1.402       .  A
C3350      H3355   1.084       .  S
C3351      C3352   1.405       .  A
C3352      N3353   1.438       .  S
N3353      H3357   1.046       .  S
N3353      H3358   1.046       .  S
N3356      H3359   1.045       .  S
N3356      H3360   1.045       .  S
C3361      C3362   1.409       .  A
C3361      C3366   1.400       .  A
C3361      H3368   1.084       .  S
C3362      C3363   1.414       .  A
C3363      C3364   1.409       .  A
C3363      N3370   1.438       .  S
C3364      C3365   1.408       .  A
C3364      H3369   1.084       .  S
C3365      C3366   1.414       .  A
C3366      N3367   1.433       .  S
N3367      H3371   1.044       .  S
N3367      H3372   1.046       .  S
N3370      H3373   1.046       .  S
N3370      H3374   1.046       .  S
C3375      C3376   1.404       .  A
C3375      C3380   1.402       .  A
C3375      H3382   1.084       .  S
C3376      C3377   1.415       .  A
C3377      C3378   1.404       .  A
C3377      N3384   1.439       .  S
C3378      C3379   1.405       .  A
C3378      H3383   1.084       .  S
C3379      C3380   1.414       .  A
C3380      N3381   1.432       .  S
N3381      H3385   1.044       .  S
N3381      H3386   1.045       .  S
N3384      H3387   1.044       .  S
N3384      H3388   1.046       .  S
C3389      C3390   1.400       .  A
C3389      C3394   1.393       .  A
C3389      H3396   1.084       .  S
C3390      C3391   1.418       .  A
C3391      C3392   1.405       .  A
C3391      N3398   1.438       .  S
C3392      C3393   1.398       .  A
C3392      H3397   1.084       .  S
C3393      C3394   1.416       .  A
C3394      N3395   1.434       .  S
N3395      H3399   1.046       .  S
N3395      H3400   1.044       .  S
N3398      H3401   1.046       .  S
N3398      H3402   1.046       .  S
C3403      C3404   1.406       .  A
C3403      C3408   1.408       .  A
C3403      H3410   1.084       .  S
C3404      C3405   1.406       .  A
C3405      C3406   1.405       .  A
C3405      N3412   1.432       .  S
C3406      C3407   1.411       .  A
C3406      H3411   1.083       .  S
C3407      C3408   1.415       .  A
C3408      N3409   1.437       .  S
N3409      H3413   1.045       .  S
N3409      H3414   1.046       .  S
N3412      H3415   1.046       .  S
N3412      H3416   1.045       .  S
C3417      C3418   1.403       .  A
C3417      C3422   1.400       .  A
C3417      H3424   1.084       .  S
C3418      C3419   1.418       .  A
C3419      C3420   1.404       .  A
C3419      N3426   1.439       .  S
C3420      C3421   1.400       .  A
C3420      H3425   1.084       .  S
C3421      C3422   1.417       .  A
C3422      N3423   1.433       .  S
N3423      H3427   1.044       .  S
N3423      H3428   1.046       .  S
N3426      H3429   1.046       .  S
N3426      H3430   1.046       .  S
C3431      C3432   1.408       .  A
C3431      C3436   1.399       .  A
C3431      H3438   1.084       .  S
C3432      C3433   1.408       .  A
C3433      C3434   1.401       .  A
C3433      N3440   1.438       .  S
C3434      C3435   1.409       .  A
C3434      H3439   1.083       .  S
C3435      C3436   1.406       .  A
C3436      N3437   1.432       .  S
N3437      H3441   1.045       .  S
N3437      H3442   1.046       .  S
N3440      H3443   1.046       .  S
N3440      H3444   1.045       .  S
C3445      C3446   1.403       .  A
C3445      C3450   1.407       .  A
C3445      H3452   1.083       .  S
C3446      C3447   1.419       .  A
C3447      C3448   1.408       .  A
C3447      N3454   1.438       .  S
C3448      C3449   1.403       .  A
C3448      H3453   1.083       .  S
C3449      C3450   1.419       .  A
C3450      N3451   1.438       .  S
N3451      H3455   1.046       .  S
N3451      H3456   1.046   1_554  S
N3454      H3457   1.046       .  S
N3454      H3458   1.046   1_554  S
C3459      C3460   1.403       .  A
C3459      C3464   1.403       .  A
C3459      H3466   1.084       .  S
C3460      C3461   1.413       .  A
C3461      C3462   1.401       .  A
C3461      N3468   1.439       .  S
C3462      C3463   1.400       .  A
C3462      H3467   1.084       .  S
C3463      C3464   1.415       .  A
C3464      N3465   1.433       .  S
N3465      H3469   1.045       .  S
N3465      H3470   1.045       .  S
N3468      H3471   1.046       .  S
N3468      H3472   1.045       .  S
C3473      C3474   1.403       .  A
C3473      C3478   1.404       .  A
C3473      H3480   1.084       .  S
C3474      C3475   1.419       .  A
C3475      C3476   1.398       .  A
C3475      N3482   1.433       .  S
C3476      C3477   1.398       .  A
C3476      H3481   1.084       .  S
C3477      C3478   1.413       .  A
C3478      N3479   1.432       .  S
N3479      H3483   1.046       .  S
N3479      H3484   1.046       .  S
N3482      H3485   1.046   1_556  S
N3482      H3486   1.046       .  S
C3487      C3488   1.401       .  A
C3487      C3492   1.401       .  A
C3487      H3494   1.084       .  S
C3488      C3489   1.416       .  A
C3489      C3490   1.399       .  A
C3489      N3496   1.433       .  S
C3490      C3491   1.398       .  A
C3490      H3495   1.084       .  S
C3491      C3492   1.419       .  A
C3492      N3493   1.433       .  S
N3493      H3497   1.044       .  S
N3493      H3498   1.046       .  S
N3496      H3499   1.046       .  S
N3496      H3500   1.046   1_556  S
C3501      C3502   1.409       .  A
C3501      C3506   1.398       .  A
C3501      H3508   1.084       .  S
C3502      C3503   1.408       .  A
C3503      C3504   1.401       .  A
C3503      N3510   1.438       .  S
C3504      C3505   1.409       .  A
C3504      H3509   1.083       .  S
C3505      C3506   1.404       .  A
C3506      N3507   1.432       .  S
N3507      H3511   1.046       .  S
N3507      H3512   1.046       .  S
N3510      H3513   1.046       .  S
N3510      H3514   1.046       .  S
C3515      C3516   1.410       .  A
C3515      C3520   1.406       .  A
C3515      H3522   1.083       .  S
C3516      C3517   1.411       .  A
C3517      C3518   1.406       .  A
C3517      N3524   1.432       .  S
C3518      C3519   1.408       .  A
C3518      H3523   1.084       .  S
C3519      C3520   1.410       .  A
C3520      N3521   1.432       .  S
N3521      H3525   1.046       .  S
N3521      H3526   1.045       .  S
N3524      H3527   1.046       .  S
N3524      H3528   1.046       .  S
C3529      C3530   1.403       .  A
C3529      C3534   1.402       .  A
C3529      H3536   1.085       .  S
C3530      C3531   1.408       .  A
C3531      C3532   1.401       .  A
C3531      N3538   1.438       .  S
C3532      C3533   1.413       .  A
C3532      H3537   1.084       .  S
C3533      C3534   1.412       .  A
C3534      N3535   1.438       .  S
N3535      H3539   1.046       .  S
N3535      H3540   1.046       .  S
N3538      H3541   1.044       .  S
N3538      H3542   1.045       .  S
C3543      C3544   1.403       .  A
C3543      C3548   1.405       .  A
C3543      H3550   1.084       .  S
C3544      C3545   1.413       .  A
C3545      C3546   1.401       .  A
C3545      N3552   1.432       .  S
C3546      C3547   1.402       .  A
C3546      H3551   1.084       .  S
C3547      C3548   1.410       .  A
C3548      N3549   1.438       .  S
N3549      H3553   1.046       .  S
N3549      H3554   1.046       .  S
N3552      H3555   1.046       .  S
N3552      H3556   1.045       .  S
C3557      C3558   1.401       .  A
C3557      C3562   1.396       .  A
C3557      H3564   1.084       .  S
C3558      C3559   1.420       .  A
C3559      C3560   1.405       .  A
C3559      N3566   1.438       .  S
C3560      C3561   1.401       .  A
C3560      H3565   1.084       .  S
C3561      C3562   1.421       .  A
C3562      N3563   1.433       .  S
N3563      H3567   1.045       .  S
N3563      H3568   1.046       .  S
N3566      H3569   1.046       .  S
N3566      H3570   1.046       .  S
C3571      C3572   1.410       .  A
C3571      C3576   1.413       .  A
C3571      H3578   1.083       .  S
C3572      C3573   1.411   1_655  A
C3573      C3574   1.405       .  A
C3573      N3580   1.432       .  S
C3574      C3575   1.408       .  A
C3574      H3579   1.084       .  S
C3575      C3576   1.415   1_455  A
C3576      N3577   1.438       .  S
N3577      H3581   1.046       .  S
N3577      H3582   1.046       .  S
N3580      H3583   1.046       .  S
N3580      H3584   1.045       .  S
C3585      C3586   1.411       .  A
C3585      C3590   1.407       .  A
C3585      H3592   1.083       .  S
C3586      C3587   1.407       .  A
C3587      C3588   1.399       .  A
C3587      N3594   1.432       .  S
C3588      C3589   1.407       .  A
C3588      H3593   1.084       .  S
C3589      C3590   1.409       .  A
C3590      N3591   1.438       .  S
N3591      H3595   1.046       .  S
N3591      H3596   1.046       .  S
N3594      H3597   1.046       .  S
N3594      H3598   1.045       .  S
C3599      C3600   1.403       .  A
C3599      C3604   1.412       .  A
C3599      H3606   1.084       .  S
C3600      C3601   1.412       .  A
C3601      C3602   1.402       .  A
C3601      N3608   1.439   1_455  S
C3602      C3603   1.400       .  A
C3602      H3607   1.084       .  S
C3603      C3604   1.414       .  A
C3604      N3605   1.437       .  S
N3605      H3609   1.046       .  S
N3605      H3610   1.045       .  S
N3608      H3611   1.046       .  S
N3608      H3612   1.046       .  S
C3613      C3614   1.402       .  A
C3613      C3618   1.403       .  A
C3613      H3620   1.083       .  S
C3614      C3615   1.419       .  A
C3615      C3616   1.403       .  A
C3615      N3622   1.438       .  S
C3616      C3617   1.397       .  A
C3616      H3621   1.084       .  S
C3617      C3618   1.414       .  A
C3618      N3619   1.439       .  S
N3619      H3623   1.047       .  S
N3619      H3624   1.044       .  S
N3622      H3625   1.046       .  S
N3622      H3626   1.046       .  S
C3627      C3628   1.404       .  A
C3627      C3632   1.408       .  A
C3627      H3634   1.083       .  S
C3628      C3629   1.418       .  A
C3629      C3630   1.408       .  A
C3629      N3636   1.438       .  S
C3630      C3631   1.405       .  A
C3630      H3635   1.083       .  S
C3631      C3632   1.418       .  A
C3632      N3633   1.438       .  S
N3633      H3637   1.045       .  S
N3633      H3638   1.046       .  S
N3636      H3639   1.046       .  S
N3636      H3640   1.046       .  S
C3641      C3642   1.407       .  A
C3641      C3646   1.398       .  A
C3641      H3648   1.084       .  S
C3642      C3643   1.411       .  A
C3643      C3644   1.411       .  A
C3643      N3650   1.437       .  S
C3644      C3645   1.408       .  A
C3644      H3649   1.084       .  S
C3645      C3646   1.404       .  A
C3646      N3647   1.433       .  S
N3647      H3651   1.046       .  S
N3647      H3652   1.046       .  S
N3650      H3653   1.046       .  S
N3650      H3654   1.046       .  S
C3655      C3656   1.406       .  A
C3655      C3660   1.394       .  A
C3655      H3662   1.084       .  S
C3656      C3657   1.409       .  A
C3657      C3658   1.404       .  A
C3657      N3664   1.438       .  S
C3658      C3659   1.409       .  A
C3658      H3663   1.083       .  S
C3659      C3660   1.415       .  A
C3660      N3661   1.433       .  S
N3661      H3665   1.045       .  S
N3661      H3666   1.046       .  S
N3664      H3667   1.046       .  S
N3664      H3668   1.046       .  S
C3669      C3670   1.402       .  A
C3669      C3674   1.402       .  A
C3669      H3676   1.085       .  S
C3670      C3671   1.405       .  A
C3671      C3672   1.409       .  A
C3671      N3678   1.437       .  S
C3672      C3673   1.411       .  A
C3672      H3677   1.083       .  S
C3673      C3674   1.413       .  A
C3674      N3675   1.438       .  S
N3675      H3679   1.046       .  S
N3675      H3680   1.046       .  S
N3678      H3681   1.045       .  S
N3678      H3682   1.046       .  S
C3683      C3684   1.400       .  A
C3683      C3688   1.403       .  A
C3683      H3690   1.084       .  S
C3684      C3685   1.416       .  A
C3685      C3686   1.396       .  A
C3685      N3692   1.433       .  S
C3686      C3687   1.399       .  A
C3686      H3691   1.084       .  S
C3687      C3688   1.417       .  A
C3688      N3689   1.433       .  S
N3689      H3693   1.046       .  S
N3689      H3694   1.046       .  S
N3692      H3695   1.046       .  S
N3692      H3696   1.046       .  S
C3697      C3698   1.409       .  A
C3697      C3702   1.406       .  A
C3697      H3704   1.083       .  S
C3698      C3699   1.413   1_655  A
C3699      C3700   1.411       .  A
C3699      N3706   1.437       .  S
C3700      C3701   1.408       .  A
C3700      H3705   1.083       .  S
C3701      C3702   1.411   1_455  A
C3702      N3703   1.438       .  S
N3703      H3707   1.046       .  S
N3703      H3708   1.046       .  S
N3706      H3709   1.046       .  S
N3706      H3710   1.046       .  S
C3711      C3712   1.405       .  A
C3711      C3716   1.399       .  A
C3711      H3718   1.085       .  S
C3712      C3713   1.408       .  A
C3713      C3714   1.402       .  A
C3713      N3720   1.432       .  S
C3714      C3715   1.411       .  A
C3714      H3719   1.084       .  S
C3715      C3716   1.409       .  A
C3716      N3717   1.433       .  S
N3717      H3721   1.046       .  S
N3717      H3722   1.046       .  S
N3720      H3723   1.045       .  S
N3720      H3724   1.046       .  S
C3725      C3726   1.402       .  A
C3725      C3730   1.401       .  A
C3725      H3732   1.084       .  S
C3726      C3727   1.418       .  A
C3727      C3728   1.398       .  A
C3727      N3734   1.433       .  S
C3728      C3729   1.397       .  A
C3728      H3733   1.084       .  S
C3729      C3730   1.412       .  A
C3730      N3731   1.433       .  S
N3731      H3735   1.046       .  S
N3731      H3736   1.045       .  S
N3734      H3737   1.046       .  S
N3734      H3738   1.046       .  S
C3739      C3740   1.403       .  A
C3739      C3744   1.409       .  A
C3739      H3746   1.084       .  S
C3740      C3741   1.420       .  A
C3741      C3742   1.399       .  A
C3741      N3748   1.433       .  S
C3742      C3743   1.404       .  A
C3742      H3747   1.084       .  S
C3743      C3744   1.417       .  A
C3744      N3745   1.432       .  S
N3745      H3749   1.046       .  S
N3745      H3750   1.046       .  S
N3748      H3751   1.046       .  S
N3748      H3752   1.045       .  S
C3753      C3754   1.404       .  A
C3753      C3758   1.401       .  A
C3753      H3760   1.084       .  S
C3754      C3755   1.410       .  A
C3755      C3756   1.402       .  A
C3755      N3762   1.438       .  S
C3756      C3757   1.402       .  A
C3756      H3761   1.084       .  S
C3757      C3758   1.412       .  A
C3758      N3759   1.432       .  S
N3759      H3763   1.045       .  S
N3759      H3764   1.046       .  S
N3762      H3765   1.046       .  S
N3762      H3766   1.046       .  S
C3767      C3768   1.397       .  A
C3767      C3772   1.404       .  A
C3767      H3774   1.085       .  S
C3768      C3769   1.416       .  A
C3769      C3770   1.404       .  A
C3769      N3776   1.439       .  S
C3770      C3771   1.405       .  A
C3770      H3775   1.084       .  S
C3771      C3772   1.420       .  A
C3772      N3773   1.439       .  S
N3773      H3777   1.046       .  S
N3773      H3778   1.046       .  S
N3776      H3779   1.043       .  S
N3776      H3780   1.046       .  S
C3781      C3782   1.409       .  A
C3781      C3786   1.401       .  A
C3781      H3788   1.083       .  S
C3782      C3783   1.413       .  A
C3783      C3784   1.406       .  A
C3783      N3790   1.438       .  S
C3784      C3785   1.406       .  A
C3784      H3789   1.084       .  S
C3785      C3786   1.408       .  A
C3786      N3787   1.438       .  S
N3787      H3791   1.046       .  S
N3787      H3792   1.045       .  S
N3790      H3793   1.045       .  S
N3790      H3794   1.046       .  S
C3795      C3796   1.405   1_455  A
C3795      C3800   1.413       .  A
C3795      H3802   1.083       .  S
C3796      C3797   1.418       .  A
C3797      C3798   1.407       .  A
C3797      N3804   1.439   1_554  S
C3798      C3799   1.404   1_655  A
C3798      H3803   1.083       .  S
C3799      C3800   1.420       .  A
C3800      N3801   1.437       .  S
N3801      H3805   1.046       .  S
N3801      H3806   1.045       .  S
N3804      H3807   1.046       .  S
N3804      H3808   1.045       .  S
C3809      C3810   1.406       .  A
C3809      C3814   1.399       .  A
C3809      H3816   1.084       .  S
C3810      C3811   1.408       .  A
C3811      C3812   1.401       .  A
C3811      N3818   1.438       .  S
C3812      C3813   1.409       .  A
C3812      H3817   1.083       .  S
C3813      C3814   1.408       .  A
C3814      N3815   1.432       .  S
N3815      H3819   1.046       .  S
N3815      H3820   1.046       .  S
N3818      H3821   1.046       .  S
N3818      H3822   1.045       .  S
C3823      C3824   1.404   1_655  A
C3823      C3828   1.406       .  A
C3823      H3830   1.083       .  S
C3824      C3825   1.416       .  A
C3825      C3826   1.405       .  A
C3825      N3832   1.432       .  S
C3826      C3827   1.403       .  A
C3826      H3831   1.084       .  S
C3827      C3828   1.419   1_455  A
C3828      N3829   1.438       .  S
N3829      H3833   1.045   1_655  S
N3829      H3834   1.046       .  S
N3832      H3835   1.046       .  S
N3832      H3836   1.046   1_455  S
C3837      C3838   1.405       .  A
C3837      C3842   1.401       .  A
C3837      H3844   1.084       .  S
C3838      C3839   1.409       .  A
C3839      C3840   1.411       .  A
C3839      N3846   1.437       .  S
C3840      C3841   1.409       .  A
C3840      H3845   1.084       .  S
C3841      C3842   1.410       .  A
C3842      N3843   1.438       .  S
N3843      H3847   1.046       .  S
N3843      H3848   1.045       .  S
N3846      H3849   1.046       .  S
N3846      H3850   1.045       .  S
C3851      C3852   1.408       .  A
C3851      C3856   1.399       .  A
C3851      H3858   1.084       .  S
C3852      C3853   1.404       .  A
C3853      C3854   1.396       .  A
C3853      N3860   1.433       .  S
C3854      C3855   1.409       .  A
C3854      H3859   1.084       .  S
C3855      C3856   1.406       .  A
C3856      N3857   1.432       .  S
N3857      H3861   1.046       .  S
N3857      H3862   1.046       .  S
N3860      H3863   1.046       .  S
N3860      H3864   1.046       .  S
C3865      C3866   1.400       .  A
C3865      C3870   1.406   1_554  A
C3865      H3872   1.084   1_554  S
C3866      C3867   1.416       .  A
C3867      C3868   1.405       .  A
C3867      N3874   1.439       .  S
C3868      C3869   1.403       .  A
C3868      H3873   1.083       .  S
C3869      C3870   1.421   1_554  A
C3870      N3871   1.438       .  S
N3871      H3875   1.046       .  S
N3871      H3876   1.046       .  S
N3874      H3877   1.046       .  S
N3874      H3878   1.046       .  S
C3879      C3880   1.404       .  A
C3879      C3884   1.398       .  A
C3879      H3886   1.084       .  S
C3880      C3881   1.409       .  A
C3881      C3882   1.401       .  A
C3881      N3888   1.432       .  S
C3882      C3883   1.409       .  A
C3882      H3887   1.084       .  S
C3883      C3884   1.407       .  A
C3884      N3885   1.433       .  S
N3885      H3889   1.046       .  S
N3885      H3890   1.046       .  S
N3888      H3891   1.046       .  S
N3888      H3892   1.045       .  S
C3893      C3894   1.398       .  A
C3893      C3898   1.405       .  A
C3893      H3900   1.084       .  S
C3894      C3895   1.409       .  A
C3895      C3896   1.399       .  A
C3895      N3902   1.433       .  S
C3896      C3897   1.402       .  A
C3896      H3901   1.084       .  S
C3897      C3898   1.420       .  A
C3898      N3899   1.438       .  S
N3899      H3903   1.046       .  S
N3899      H3904   1.046       .  S
N3902      H3905   1.046       .  S
N3902      H3906   1.045       .  S
C3907      C3908   1.408       .  A
C3907      C3912   1.408       .  A
C3907      H3914   1.083       .  S
C3908      C3909   1.419   1_554  A
C3909      C3910   1.412   1_556  A
C3909      N3916   1.437       .  S
C3910      C3911   1.403       .  A
C3910      H3915   1.084   1_554  S
C3911      C3912   1.414       .  A
C3912      N3913   1.439       .  S
N3913      H3917   1.046       .  S
N3913      H3918   1.046       .  S
N3916      H3919   1.046       .  S
N3916      H3920   1.046       .  S
C3921      C3922   1.402       .  A
C3921      C3926   1.394       .  A
C3921      H3928   1.084   1_556  S
C3922      C3923   1.415       .  A
C3923      C3924   1.412       .  A
C3923      N3930   1.438       .  S
C3924      C3925   1.403       .  A
C3924      H3929   1.084       .  S
C3925      C3926   1.411       .  A
C3926      N3927   1.433   1_556  S
N3927      H3931   1.045       .  S
N3927      H3932   1.045       .  S
N3930      H3933   1.046       .  S
N3930      H3934   1.046       .  S
C3935      C3936   1.409       .  A
C3935      C3940   1.398       .  A
C3935      H3942   1.084       .  S
C3936      C3937   1.409       .  A
C3937      C3938   1.400       .  A
C3937      N3944   1.438       .  S
C3938      C3939   1.409       .  A
C3938      H3943   1.083       .  S
C3939      C3940   1.412       .  A
C3940      N3941   1.432       .  S
N3941      H3945   1.045       .  S
N3941      H3946   1.046       .  S
N3944      H3947   1.046       .  S
N3944      H3948   1.046       .  S
C3949      C3950   1.406       .  A
C3949      C3954   1.408       .  A
C3949      H3956   1.083       .  S
C3950      C3951   1.408   1_455  A
C3951      C3952   1.404       .  A
C3951      N3958   1.432       .  S
C3952      C3953   1.408       .  A
C3952      H3957   1.083       .  S
C3953      C3954   1.415   1_655  A
C3954      N3955   1.438       .  S
N3955      H3959   1.045       .  S
N3955      H3960   1.046       .  S
N3958      H3961   1.046       .  S
N3958      H3962   1.046   1_554  S
C3963      C3964   1.402       .  A
C3963      C3968   1.394       .  A
C3963      H3970   1.085       .  S
C3964      C3965   1.405       .  A
C3965      C3966   1.408       .  A
C3965      N3972   1.437       .  S
C3966      C3967   1.411       .  A
C3966      H3971   1.083       .  S
C3967      C3968   1.408       .  A
C3968      N3969   1.433       .  S
N3969      H3973   1.046       .  S
N3969      H3974   1.046       .  S
N3972      H3975   1.046       .  S
N3972      H3976   1.046       .  S
C3977      C3978   1.409       .  A
C3977      C3982   1.404       .  A
C3977      H3984   1.083       .  S
C3978      C3979   1.414       .  A
C3979      C3980   1.401       .  A
C3979      N3986   1.432       .  S
C3980      C3981   1.409       .  A
C3980      H3985   1.084       .  S
C3981      C3982   1.412       .  A
C3982      N3983   1.438       .  S
N3983      H3987   1.045       .  S
N3983      H3988   1.046       .  S
N3986      H3989   1.046       .  S
N3986      H3990   1.045       .  S
C3991      C3992   1.412       .  A
C3991      C3996   1.406       .  A
C3991      H3998   1.083       .  S
C3992      C3993   1.415       .  A
C3993      C3994   1.407       .  A
C3993      N4000   1.438       .  S
C3994      C3995   1.406       .  A
C3994      H3999   1.084       .  S
C3995      C3996   1.405       .  A
C3996      N3997   1.432       .  S
N3997      H4001   1.046   1_455  S
N3997      H4002   1.045       .  S
N4000      H4003   1.046       .  S
N4000      H4004   1.046       .  S
C4005      C4006   1.404       .  A
C4005      C4010   1.410       .  A
C4005      H4012   1.084       .  S
C4006      C4007   1.418       .  A
C4007      C4008   1.403       .  A
C4007      N4014   1.439       .  S
C4008      C4009   1.400       .  A
C4008      H4013   1.084       .  S
C4009      C4010   1.413       .  A
C4010      N4011   1.432       .  S
N4011      H4015   1.046       .  S
N4011      H4016   1.045       .  S
N4014      H4017   1.046   1_655  S
N4014      H4018   1.046       .  S
C4019      C4020   1.399       .  A
C4019      C4024   1.395       .  A
C4019      H4026   1.084       .  S
C4020      C4021   1.414       .  A
C4021      C4022   1.410       .  A
C4021      N4028   1.438       .  S
C4022      C4023   1.402       .  A
C4022      H4027   1.084       .  S
C4023      C4024   1.407       .  A
C4024      N4025   1.433       .  S
N4025      H4029   1.046   1_455  S
N4025      H4030   1.045       .  S
N4028      H4031   1.046       .  S
N4028      H4032   1.046       .  S
