geometry optimzed in LAMMPS
_audit_creation_date              2020-12-01 
_audit_creation_method            'lammps2cif' 
_symmetry_space_group_name_H-M    'P1' 
_symmetry_Int_Tables_number       1 
_symmetry_cell_setting            triclinic 
loop_ 
_symmetry_equiv_pos_as_xyz 
  x,y,z 
_cell_length_a                    60.73015405 
_cell_length_b                    60.63766225515172 
_cell_length_c                    38.834402375477026 
_cell_angle_alpha                 89.83007206452213 
_cell_angle_beta                  90.09806059469283 
_cell_angle_gamma                 120.02080173675478 
loop_ 
_atom_site_label 
_atom_site_type_symbol 
_atom_site_fract_x 
_atom_site_fract_y 
_atom_site_fract_z 
_atom_site_charge 
O1          O  0.41233376  0.39802117  0.32645304    -0.72700
O2          O  0.34873417  0.33555602  0.32474803    -0.72800
O3          O  0.37228445  0.37688236  0.28310478    -0.72800
O4          O  0.38906937  0.35693687  0.36864182    -0.72900
O5          O  0.37100836  0.37560047  0.39712665    -0.72800
O6          O  0.35421511  0.39541323  0.31168639    -0.72800
O7          O  0.33056056  0.35398659  0.35349666    -0.72800
O8          O  0.39431760  0.41659432  0.35533501    -0.72800
Ni9        Ni  0.38117792  0.36610719  0.32476127     1.25400
Ni10       Ni  0.36179807  0.38596602  0.35544138     1.25400
C11         C  0.41381069  0.41765450  0.34097928     0.89400
C12         C  0.32907896  0.33446578  0.33856217     0.89400
C13         C  0.36099506  0.38996892  0.28319505     0.89400
C14         C  0.38343387  0.36364787  0.39707169     0.89600
O15         O  0.08243051  0.10074165  0.32074067    -0.72700
O16         O  0.14433569  0.16490619  0.31867249    -0.72800
O17         O  0.12178386  0.12368248  0.27636104    -0.72800
O18         O  0.10458188  0.14160675  0.36262882    -0.72900
O19         O  0.12374048  0.12363042  0.39037061    -0.72800
O20         O  0.14228684  0.10698512  0.30379885    -0.72800
O21         O  0.16395851  0.14760280  0.34689502    -0.72800
O22         O  0.10258769  0.08325119  0.34731396    -0.72800
Ni23       Ni  0.11265505  0.13341359  0.31857525     1.25400
Ni24       Ni  0.13392399  0.11483181  0.34809400     1.25400
C25         C  0.08238792  0.08142694  0.33426024     0.89400
C26         C  0.16434199  0.16689514  0.33276973     0.89400
C27         C  0.13435480  0.11187493  0.27576640     0.89400
C28         C  0.11076421  0.13505111  0.39078271     0.89600
O29         O  0.48171339  0.39647219  0.68442243    -0.72700
O30         O  0.48073398  0.33298985  0.68557272    -0.72800
O31         O  0.50162419  0.37514944  0.72608756    -0.72800
O32         O  0.46091201  0.35479585  0.64412190    -0.72900
O33         O  0.99755289  0.37217159  0.61197100    -0.72800
O34         O  0.03789100  0.39383662  0.69453575    -0.72800
O35         O  0.01769453  0.35124598  0.65459969    -0.72800
O36         O  0.01765599  0.41421467  0.65141505    -0.72800
Ni37       Ni  0.48002240  0.36416362  0.68622418     1.25400
Ni38       Ni  0.01899846  0.38340076  0.65206878     1.25400
C39         C  0.49892344  0.41513670  0.66712336     0.89400
C40         C  0.49831912  0.33109959  0.67010497     0.89400
C41         C  0.02689406  0.38907238  0.72400683     0.89400
C42         C  0.47165622  0.36025693  0.61449321     0.89600
O43         O  0.02001890  0.10266429  0.68103853    -0.72700
O44         O  0.01786332  0.16470874  0.68319135    -0.72800
O45         O  0.99975966  0.12283266  0.72368684    -0.72800
O46         O  0.03844814  0.14453114  0.64047178    -0.72900
O47         O  0.50230949  0.12656650  0.60924332    -0.72800
O48         O  0.46378507  0.10375985  0.69316520    -0.72800
O49         O  0.48158562  0.14592166  0.65306591    -0.72800
O50         O  0.48429297  0.08437739  0.64932545    -0.72800
Ni51       Ni  0.02029805  0.13440045  0.68314796     1.25400
Ni52       Ni  0.48171783  0.11455341  0.65008928     1.25400
C53         C  0.00228415  0.08313038  0.66570523     0.89400
C54         C  0.99947821  0.16570799  0.66846757     0.89400
C55         C  0.47561774  0.10882542  0.72201576     0.89400
C56         C  0.02704699  0.13856212  0.61133911     0.89600
O57         O  0.42016376  0.02118678  0.01708341    -0.72700
O58         O  0.35892813  0.02484263  0.01747862    -0.72800
O59         O  0.38043941  0.00554018  0.06069667    -0.72800
O60         O  0.39885702  0.04062127  0.97414164    -0.72900
O61         O  0.37408069  0.50091384  0.94635840    -0.72800
O62         O  0.35680833  0.46520249  0.03245732    -0.72800
O63         O  0.33432258  0.48415663  0.99059834    -0.72800
O64         O  0.39633630  0.48215686  0.98819772    -0.72800
Ni65       Ni  0.39027881  0.02436424  0.01834064     1.25400
Ni66       Ni  0.36460965  0.48179924  0.98843579     1.25400
C67         C  0.42021784  0.00202229  0.00329506     0.89400
C68         C  0.33880852  0.00698350  0.00339416     0.89400
C69         C  0.36406026  0.47763037  0.06076918     0.89400
C70         C  0.39199736  0.02801001  0.94595368     0.89600
O71         O  0.08568193  0.48590495  0.01191978    -0.72700
O72         O  0.14940653  0.48781693  0.01368931    -0.72800
O73         O  0.12584586  0.50566619  0.05490765    -0.72800
O74         O  0.10897477  0.46819695  0.97012573    -0.72900
O75         O  0.12827661  0.00376058  0.94074573    -0.72800
O76         O  0.14600917  0.04123582  0.02516975    -0.72800
O77         O  0.16998387  0.02448965  0.98274789    -0.72800
O78         O  0.10490250  0.02035650  0.98350663    -0.72800
Ni79       Ni  0.11694870  0.48560618  0.01366506     1.25400
Ni80       Ni  0.13797756  0.02373887  0.98196423     1.25400
C81         C  0.08593683  0.00140019  0.99812259     0.89400
C82         C  0.17261891  0.00717108  0.99804531     0.89400
C83         C  0.14004163  0.02934888  0.05401091     0.89400
C84         C  0.11398551  0.48042396  0.94155599     0.89600
C85         C  0.02969358  0.51523088  0.97353184     0.14400
C86         C  0.01324094  0.99761294  0.00041442     0.01300
C87         C  0.01610899  0.97831660  0.01589207     0.16300
C88         C  0.03962202  0.97932913  0.01495909     0.25700
C89         C  0.06071055  0.99980523  0.99843497    -0.40600
C90         C  0.05324194  0.51629776  0.97299263     0.32800
C91         C  0.48962959  0.99877918  0.00146443     0.01400
F92         F  0.99616163  0.95860740  0.03215431    -0.12900
F93         F  0.06999787  0.52973017  0.94756615    -0.13500
C94         C  0.46983752  0.49003715  0.97246767     0.16300
C95         C  0.44660778  0.48959240  0.97336314     0.25700
C96         C  0.44391940  0.00049530  0.00324893    -0.40600
C97         C  0.46515201  0.01763794  0.02295634     0.32700
C98         C  0.48763586  0.01664242  0.02221149     0.14400
F99         F  0.47560623  0.48033817  0.94468536    -0.12900
F100        F  0.46427727  0.03539520  0.04320841    -0.13400
F101        F  0.43067881  0.48007643  0.94594829    -0.15700
F102        F  0.00196832  0.02156114  0.05420846    -0.14300
F103        F  0.52418350  0.52784222  0.94898534    -0.14300
F104        F  0.04164214  0.96032093  0.03047541    -0.15700
C105        C  0.21731799  0.48467194  0.01277481     0.14400
C106        C  0.24543453  0.01083463  0.00065871     0.01300
C107        C  0.24321710  0.03065382  0.98539444     0.16300
C108        C  0.21968299  0.02969600  0.98467212     0.25700
C109        C  0.19789275  0.00879448  0.99919615    -0.40600
C110        C  0.19428464  0.48451907  0.01095306     0.32800
C111        C  0.26977765  0.01082594  0.00002807     0.01400
F112        F  0.26371713  0.05062815  0.97043975    -0.12900
F113        F  0.17259954  0.46249530  0.01854113    -0.13500
C114        C  0.26655716  0.48803834  0.98439187     0.16300
C115        C  0.28896596  0.48690301  0.98468626     0.25700
C116        C  0.31510901  0.00849479  0.00217243    -0.40600
C117        C  0.31392627  0.02893137  0.01766793     0.32700
C118        C  0.29144739  0.03003250  0.01656712     0.14400
F119        F  0.24701536  0.47164760  0.96400485    -0.12900
F120        F  0.33434468  0.04775240  0.03429977    -0.13400
F121        F  0.29011373  0.46914100  0.96477138    -0.15700
F122        F  0.29061977  0.04949773  0.03252927    -0.14300
F123        F  0.21722944  0.46319316  0.02302942    -0.14300
F124        F  0.21834761  0.04922638  0.96959635    -0.15700
C125        C  0.42889130  0.08004122  0.88001595     0.14400
C126        C  0.42042146  0.06659422  0.84895825     0.01300
C127        C  0.40065437  0.04114385  0.84958160     0.16300
C128        C  0.39060662  0.02880876  0.88100317     0.25700
C129        C  0.40021569  0.04177343  0.91245872    -0.40600
C130        C  0.41890478  0.06784775  0.91143923     0.32800
C131        C  0.43429341  0.07819850  0.81658892     0.01400
F132        F  0.39206037  0.02779638  0.81982311    -0.12900
F133        F  0.42845654  0.08143553  0.94083177    -0.13500
C134        C  0.45997005  0.08500177  0.81396326     0.16300
C135        C  0.47335279  0.09518589  0.78342547     0.25700
C136        C  0.46130353  0.09875488  0.75463495    -0.40600
C137        C  0.43551736  0.09200253  0.75733050     0.32700
C138        C  0.42213351  0.08180630  0.78811341     0.14400
F139        F  0.47193426  0.08102900  0.84082374    -0.12900
F140        F  0.42333917  0.09556748  0.73040350    -0.13400
F141        F  0.49792733  0.10069571  0.78179109    -0.15700
F142        F  0.39740288  0.07569233  0.79026626    -0.14300
F143        F  0.44756486  0.10487156  0.87992750    -0.14300
F144        F  0.37197115  0.00397751  0.88049422    -0.15700
C145        C  0.08081620  0.43221478  0.78446202     0.14400
C146        C  0.06944279  0.42367616  0.81682758     0.01300
C147        C  0.04483340  0.40252779  0.81882818     0.16300
C148        C  0.03133834  0.39060977  0.78878216     0.25700
C149        C  0.04228957  0.39962096  0.75600203    -0.40600
C150        C  0.06749384  0.42025777  0.75432440     0.32800
C151        C  0.08205043  0.43851363  0.84816905     0.01400
F152        F  0.03344443  0.39412513  0.84993574    -0.12900
F153        F  0.07889026  0.42982647  0.72353016    -0.13500
C154        C  0.08051289  0.46031772  0.85569525     0.16300
C155        C  0.09152635  0.47420250  0.88568985     0.25700
C156        C  0.10409607  0.46638552  0.90892374    -0.40600
C157        C  0.10575304  0.44458276  0.90137047     0.32700
C158        C  0.09490227  0.43079901  0.87102458     0.14400
F159        F  0.06770056  0.46775595  0.83433132    -0.12900
F160        F  0.11815044  0.43689182  0.92309873    -0.13400
F161        F  0.09394546  0.99556394  0.89111240    -0.15700
F162        F  0.09687796  0.40995125  0.86393480    -0.14300
F163        F  0.10456135  0.45277909  0.78204733    -0.14300
F164        F  0.50744434  0.36857190  0.79160397    -0.15700
C165        C  0.02063165  0.28291054  0.66383261     0.14400
C166        C  0.49696106  0.25956267  0.67092926     0.01300
C167        C  0.47431021  0.26022596  0.67485179     0.16300
C168        C  0.47471211  0.28346454  0.67444234     0.25700
C169        C  0.49783618  0.30648831  0.67028824    -0.40600
C170        C  0.02131809  0.30626972  0.66399514     0.32800
C171        C  0.99729931  0.23559372  0.67026250     0.01400
F172        F  0.45180510  0.23836365  0.67948698    -0.12900
F173        F  0.04397282  0.32786248  0.65887292    -0.13500
C174        C  0.01298517  0.23183289  0.69326305     0.16300
C175        C  0.01364807  0.20914624  0.69283552     0.25700
C176        C  0.99840958  0.18960688  0.66949236    -0.40600
C177        C  0.48206928  0.19301188  0.64732629     0.32700
C178        C  0.48160837  0.21580137  0.64779455     0.14400
F179        F  0.02755304  0.25013747  0.71642772    -0.12900
F180        F  0.46751250  0.17509206  0.62373103    -0.13400
F181        F  0.02905921  0.20631814  0.71559589    -0.15700
F182        F  0.46699297  0.21937988  0.62446877    -0.14300
F183        F  0.04239297  0.28245885  0.65754006    -0.14300
F184        F  0.45237401  0.28334195  0.67741182    -0.15700
C185        C  0.48393939  0.01433442  0.64662170     0.14400
C186        C  0.00100882  0.01139411  0.66841292    -0.01100
C187        C  0.01944125  0.03226290  0.68709515     0.16300
C188        C  0.02021281  0.05570007  0.68581649     0.25700
C189        C  0.00233670  0.05862387  0.66593137    -0.40600
C190        C  0.48434256  0.03756966  0.64536573     0.32800
C191        C  0.49675133  0.48449111  0.66005968     0.01400
F192        F  0.03696509  0.03001440  0.70620458    -0.12900
F193        F  0.46650286  0.03908319  0.62600824    -0.13500
C194        C  0.50462251  0.47583842  0.63171045     0.16300
C195        C  0.50556910  0.45334379  0.63412289     0.25700
C196        C  0.49836871  0.43905494  0.66481853    -0.40600
C197        C  0.99035682  0.44786305  0.69244400     0.32700
C198        C  0.98931924  0.47028095  0.69009601     0.14400
F199        F  0.51099093  0.48897158  0.60154365    -0.12900
F200        F  0.98332093  0.43441364  0.72235296    -0.13400
F201        F  0.51281159  0.44514835  0.60613931    -0.15700
F202        F  0.98151765  0.47815449  0.71783446    -0.14300
F203        F  0.45189829  0.48731153  0.66981299    -0.14300
F204        F  0.03842082  0.07539908  0.70425947    -0.15700
C205        C  0.04410587  0.14507218  0.51633325     0.14400
C206        C  0.06877352  0.14851559  0.51756179     0.01300
C207        C  0.08071112  0.15182995  0.54965043     0.16300
C208        C  0.06765424  0.15000939  0.58011091     0.25700
C209        C  0.04223520  0.14473351  0.57911499    -0.40600
C210        C  0.03097547  0.14326673  0.54679044     0.32800
C211        C  0.08117867  0.14646862  0.48577830     0.01400
F212        F  0.10486294  0.15608422  0.55151786    -0.12900
F213        F  0.50574576  0.13862494  0.54376655    -0.13500
C214        C  0.08527463  0.16247988  0.45738827     0.16300
C215        C  0.09549935  0.15924170  0.42677802     0.25700
C216        C  0.10197704  0.13997931  0.42404589    -0.40600
C217        C  0.09843841  0.12440802  0.45289339     0.32700
C218        C  0.08803782  0.12755099  0.48331793     0.14400
F219        F  0.07936944  0.18128059  0.45931998    -0.12900
F220        F  0.10387488  0.10527007  0.45124836    -0.13400
F221        F  0.09907741  0.17501752  0.39984059    -0.15700
F222        F  0.08364163  0.11133146  0.51000302    -0.14300
F223        F  0.03215871  0.14205013  0.48566789    -0.14300
F224        F  0.07958180  0.15210577  0.61054582    -0.15700
C225        C  0.12441967  0.08679295  0.18429280     0.14400
C226        C  0.14451968  0.08182933  0.18035181     0.01300
C227        C  0.16201523  0.08783390  0.20737035     0.16300
C228        C  0.15917445  0.09821219  0.23813519     0.25700
C229        C  0.13876696  0.10281547  0.24237421    -0.40600
C230        C  0.12157680  0.09721354  0.21488936     0.32800
C231        C  0.14649409  0.06960577  0.14837184     0.01400
F232        F  0.18190728  0.08371329  0.20387328    -0.12900
F233        F  0.10125599  0.10069284  0.21809489    -0.13500
C234        C  0.14944811  0.08160427  0.11638605     0.16300
C235        C  0.14848505  0.06898952  0.08582156     0.25700
C236        C  0.14432197  0.04389134  0.08658003    -0.40600
C237        C  0.14248285  0.03236273  0.11887762     0.32700
C238        C  0.14358806  0.04512912  0.14942446     0.14400
F239        F  0.15273841  0.10544471  0.11474183    -0.12900
F240        F  0.13912052  0.00851835  0.12102699    -0.13400
F241        F  0.15052988  0.08107065  0.05549334    -0.15700
F242        F  0.14062797  0.03309092  0.18004581    -0.14300
F243        F  0.10690884  0.08061139  0.15888477    -0.14300
F244        F  0.17647976  0.10387681  0.26367022    -0.15700
C245        C  0.41662883  0.34801938  0.55538180     0.14400
C246        C  0.42776288  0.35153708  0.52270776     0.01300
C247        C  0.45268581  0.35588089  0.52012099     0.16300
C248        C  0.46665812  0.35771434  0.54979296     0.25700
C249        C  0.45591052  0.35512897  0.58280859    -0.40600
C250        C  0.43045113  0.34968003  0.58511096     0.32800
C251        C  0.41430195  0.35294317  0.49158552     0.01400
F252        F  0.46398097  0.35965212  0.48882821    -0.12900
F253        F  0.41914829  0.34709487  0.61615708    -0.13500
C254        C  0.40849583  0.37255399  0.48847534     0.16300
C255        C  0.39767691  0.37543243  0.45821365     0.25700
C256        C  0.39248169  0.35876279  0.43024169    -0.40600
C257        C  0.39767299  0.33865815  0.43375894     0.32700
C258        C  0.40846652  0.33577955  0.46420690     0.14400
F259        F  0.41442683  0.38971692  0.51424704    -0.12900
F260        F  0.39232620  0.32179166  0.40776317    -0.13400
F261        F  0.39359206  0.39544537  0.45570246    -0.15700
F262        F  0.41333938  0.31629940  0.46695733    -0.14300
F263        F  0.39247367  0.34357134  0.55852759    -0.14300
F264        F  0.49095230  0.36270498  0.54606137    -0.15700
C265        C  0.01281994  0.03209584  0.34145932     0.14400
C266        C  0.01335484  0.00934734  0.33712965     0.01300
C267        C  0.03679239  0.01049245  0.33163417     0.16300
C268        C  0.05928176  0.03399770  0.33044547     0.25700
C269        C  0.05869710  0.05669296  0.33498431    -0.40600
C270        C  0.03531109  0.05555605  0.34056705     0.32800
C271        C  0.48499322  0.48831201  0.34006865     0.01400
F272        F  0.53737119  0.98986475  0.32198660    -0.12900
F273        F  0.03428264  0.07713561  0.34600269    -0.13500
C274        C  0.47816397  0.47121824  0.31240822     0.16300
C275        C  0.45512528  0.44817431  0.31285661     0.25700
C276        C  0.43831714  0.44189563  0.34084865    -0.40600
C277        C  0.44510265  0.45906562  0.36848119     0.32700
C278        C  0.46831500  0.48200375  0.36817630     0.14400
F279        F  0.49356323  0.47715965  0.28448773    -0.12900
F280        F  0.42955428  0.45337435  0.39619271    -0.13400
F281        F  0.44890013  0.43238270  0.28533808    -0.15700
F282        F  0.47471997  0.49787624  0.39561985    -0.14300
F283        F  0.98601806  0.53663090  0.34107943    -0.14300
F284        F  0.08156782  0.03460295  0.32412082    -0.15700
C285        C  0.21026548  0.23815015  0.33152574     0.14400
C286        C  0.23381265  0.23913776  0.33417358     0.01300
C287        C  0.23442916  0.21633104  0.33630713     0.16300
C288        C  0.21187949  0.19287286  0.33573106     0.25700
C289        C  0.18821648  0.19177196  0.33295839    -0.40600
C290        C  0.18764954  0.21468527  0.33089131     0.32800
C291        C  0.25780050  0.26389540  0.33474081     0.01400
F292        F  0.25693276  0.21679778  0.33945522    -0.12900
F293        F  0.16520414  0.21445361  0.32903637    -0.13500
C294        C  0.26235251  0.28171957  0.36076371     0.16300
C295        C  0.28538718  0.30478472  0.36187164     0.25700
C296        C  0.30438786  0.31034108  0.33706261    -0.40600
C297        C  0.29958990  0.29249838  0.31077731     0.32700
C298        C  0.27649401  0.26955599  0.30961375     0.14400
F299        F  0.24474173  0.27645373  0.38570587    -0.12900
F300        F  0.31704030  0.29739930  0.28573404    -0.13400
F301        F  0.28933802  0.32129963  0.38785265    -0.15700
F302        F  0.27222803  0.25291999  0.28365277    -0.14300
F303        F  0.20919881  0.25994255  0.32917473    -0.14300
F304        F  0.21329715  0.17124306  0.33739674    -0.15700
C305        C  0.34377981  0.42351923  0.12550569     0.14400
C306        C  0.35411125  0.43684257  0.15629066     0.01300
C307        C  0.36630957  0.46357094  0.15600353     0.16300
C308        C  0.36878269  0.47679976  0.12532429     0.25700
C309        C  0.35924004  0.46356110  0.09403352    -0.40600
C310        C  0.34636719  0.43665485  0.09471493     0.32800
C311        C  0.35366802  0.42303828  0.18818334     0.01400
F312        F  0.37690640  0.47699885  0.18523208    -0.12900
F313        F  0.33670595  0.42286444  0.06549919    -0.13500
C314        C  0.36472761  0.40749283  0.18838375     0.16300
C315        C  0.36613449  0.39589961  0.21883653     0.25700
C316        C  0.35675645  0.39982748  0.25008468    -0.40600
C317        C  0.34486916  0.41477276  0.24949639     0.32700
C318        C  0.34334886  0.42620043  0.21886267     0.14400
F319        F  0.37525087  0.40441374  0.15927634    -0.12900
F320        F  0.33510769  0.41885228  0.27862921    -0.13400
F321        F  0.37747471  0.38148285  0.21768350    -0.15700
F322        F  0.33194436  0.44057729  0.21922373    -0.14300
F323        F  0.33137525  0.39766118  0.12518035    -0.14300
F324        F  0.38130558  0.50264255  0.12629079    -0.15700
O325        O  0.41533470  0.89501005  0.32055511    -0.72700
O326        O  0.35088921  0.83349070  0.31884594    -0.72800
O327        O  0.37493139  0.87551208  0.27800316    -0.72800
O328        O  0.39185901  0.85368559  0.36220577    -0.72900
O329        O  0.37448576  0.87241036  0.39190412    -0.72800
O330        O  0.35793907  0.89436906  0.30829387    -0.72800
O331        O  0.33369503  0.85230196  0.34886677    -0.72800
O332        O  0.39830091  0.91382991  0.35103000    -0.72800
Ni333      Ni  0.38375052  0.86361596  0.31885321     1.25400
Ni334      Ni  0.36540817  0.88377507  0.35110229     1.25400
C335        C  0.41741185  0.91462193  0.33586946     0.89400
C336        C  0.33155770  0.83273285  0.33324365     0.89400
C337        C  0.36448998  0.88939513  0.27932008     0.89400
C338        C  0.38669760  0.86026400  0.39114918     0.89600
O339        O  0.07911558  0.60436263  0.31814209    -0.72700
O340        O  0.14205782  0.66804647  0.31523856    -0.72800
O341        O  0.11821365  0.62713563  0.27283221    -0.72800
O342        O  0.10250101  0.64504216  0.36011858    -0.72900
O343        O  0.12122919  0.62611918  0.38665590    -0.72800
O344        O  0.13848851  0.60976954  0.29927383    -0.72800
O345        O  0.16116857  0.64985816  0.34252669    -0.72800
O346        O  0.09899743  0.58618599  0.34352549    -0.72800
Ni347      Ni  0.10984261  0.63686473  0.31559449     1.25400
Ni348      Ni  0.13073242  0.61742885  0.34393218     1.25400
C349        C  0.07869633  0.58479088  0.33153704     0.89400
C350        C  0.16209037  0.66940421  0.32839700     0.89400
C351        C  0.13072670  0.61529689  0.27162297     0.89400
C352        C  0.10841888  0.63767268  0.38777615     0.89600
O353        O  0.48231054  0.89652988  0.68330667    -0.72700
O354        O  0.48250892  0.83334602  0.68361249    -0.72800
O355        O  0.50138050  0.87477298  0.72554463    -0.72800
O356        O  0.46319531  0.85539511  0.64126033    -0.72900
O357        O  0.99937749  0.87397983  0.61196641    -0.72800
O358        O  0.03792689  0.89356593  0.69620125    -0.72800
O359        O  0.01959592  0.85253187  0.65358584    -0.72800
O360        O  0.01790560  0.91472958  0.65418700    -0.72800
Ni361      Ni  0.48106176  0.86427646  0.68447010     1.25400
Ni362      Ni  0.01998023  0.88430514  0.65293551     1.25400
C363        C  0.50033410  0.91593436  0.66805510     0.89400
C364        C  0.50069752  0.83197986  0.66895602     0.89400
C365        C  0.02621859  0.88762745  0.72519774     0.89400
C366        C  0.47480156  0.86154055  0.61222209     0.89600
O367        O  0.01559847  0.59863234  0.67813328    -0.72700
O368        O  0.01698367  0.66240092  0.68256362    -0.72800
O369        O  0.99739002  0.61979563  0.72277187    -0.72800
O370        O  0.03505629  0.64072793  0.63859816    -0.72900
O371        O  0.49954730  0.62399583  0.60864661    -0.72800
O372        O  0.46175930  0.60324000  0.69340452    -0.72800
O373        O  0.48134685  0.64562547  0.65293461    -0.72800
O374        O  0.47969411  0.58187857  0.64887151    -0.72800
Ni375      Ni  0.01749859  0.63103016  0.68164965     1.25400
Ni376      Ni  0.47928932  0.61316762  0.64992606     1.25400
C377        C  0.99709576  0.57975794  0.66282543     0.89400
C378        C  0.99948769  0.66480337  0.66754132     0.89400
C379        C  0.47375020  0.60742052  0.72205046     0.89400
C380        C  0.02327265  0.63515511  0.60975112     0.89600
O381        O  0.41583293  0.51887487  0.01685812    -0.72700
O382        O  0.35408767  0.52122953  0.01811252    -0.72800
O383        O  0.37613988  0.50205906  0.06049283    -0.72800
O384        O  0.39411084  0.53786499  0.97409300    -0.72900
O385        O  0.37873085  0.00362796  0.94648496    -0.72800
O386        O  0.36038423  0.96850886  0.03316274    -0.72800
O387        O  0.33895000  0.98778049  0.99000219    -0.72800
O388        O  0.39999726  0.98418221  0.98945345    -0.72800
Ni389      Ni  0.38567489  0.52132920  0.01837383     1.25400
Ni390      Ni  0.36875573  0.98471101  0.98883008     1.25400
C391        C  0.41629275  0.50018900  0.00232359     0.89400
C392        C  0.33392417  0.50308029  0.00456860     0.89400
C393        C  0.36779329  0.98114891  0.06132348     0.89400
C394        C  0.38752137  0.52526611  0.94581974     0.89600
O395        O  0.08859666  0.98388749  0.01260787    -0.72700
O396        O  0.15356934  0.98834386  0.01258709    -0.72800
O397        O  0.12948155  0.00498627  0.05484801    -0.72800
O398        O  0.11237125  0.96729808  0.97005524    -0.72900
O399        O  0.12621001  0.50481411  0.94092690    -0.72800
O400        O  0.14381562  0.54205231  0.02546951    -0.72800
O401        O  0.16731533  0.52410496  0.98399517    -0.72800
O402        O  0.10325063  0.52253255  0.98287922    -0.72800
Ni403      Ni  0.12053255  0.98483866  0.01355492     1.25400
Ni404      Ni  0.13589631  0.52467088  0.98222685     1.25400
C405        C  0.08391226  0.50396106  0.99749933     0.89400
C406        C  0.16896317  0.50622340  0.99938429     0.89400
C407        C  0.13697030  0.53006110  0.05418692     0.89400
C408        C  0.11651763  0.97936916  0.94145181     0.89600
C409        C  0.03388837  0.01776761  0.98357240     0.14400
C410        C  0.01181149  0.50133054  0.99925088     0.01300
C411        C  0.01772558  0.48852734  0.02449769     0.16300
C412        C  0.04114598  0.48939829  0.02392159     0.25700
C413        C  0.05918503  0.50326165  0.99809492    -0.40600
C414        C  0.05740684  0.01890940  0.98249627     0.32800
C415        C  0.48694036  0.50026600  0.00012784     0.01400
F416        F  0.00066822  0.47497747  0.04958578    -0.12900
F417        F  0.07689119  0.03887657  0.96595646    -0.13500
C418        C  0.46839258  0.98127783  0.98234783     0.16300
C419        C  0.44572417  0.98199401  0.98335301     0.25700
C420        C  0.44026345  0.49959514  0.00184891    -0.40600
C421        C  0.45730298  0.50954826  0.02969533     0.32700
C422        C  0.48041716  0.50980952  0.02886545     0.14400
F423        F  0.46981607  0.96395035  0.96180043    -0.12900
F424        F  0.45140997  0.51866908  0.05799165    -0.13400
F425        F  0.42578500  0.96485122  0.96417402    -0.15700
F426        F  0.99823139  0.52347337  0.05327215    -0.14300
F427        F  0.53537812  0.04288568  0.98140051    -0.14300
F428        F  0.04629866  0.47704363  0.04910046    -0.15700
C429        C  0.22401367  0.99037650  0.01588825     0.14400
C430        C  0.24025048  0.50670282  0.00431020     0.01300
C431        C  0.23982601  0.52886171  0.99472735     0.16300
C432        C  0.21676269  0.52885240  0.99311420     0.25700
C433        C  0.19362472  0.50658801  0.00096738    -0.40600
C434        C  0.20053164  0.98928907  0.01520259     0.32800
C435        C  0.26436938  0.50610480  0.00440191     0.01400
F436        F  0.26171358  0.55038751  0.98617531    -0.12900
F437        F  0.18042476  0.96895510  0.03021480    -0.13500
C438        C  0.27098571  0.99074947  0.98402767     0.16300
C439        C  0.29330932  0.98951541  0.98509639     0.25700
C440        C  0.30992738  0.50405758  0.00480772    -0.40600
C441        C  0.30768100  0.52224924  0.02482396     0.32700
C442        C  0.28509934  0.52317914  0.02465841     0.14400
F443        F  0.25040907  0.97224752  0.96722167    -0.12900
F444        F  0.32715025  0.53897609  0.04502659    -0.13400
F445        F  0.29337015  0.96958526  0.96933645    -0.15700
F446        F  0.28329508  0.54042950  0.04490239    -0.14300
F447        F  0.22588378  0.97135436  0.03166146    -0.14300
F448        F  0.21720365  0.55071735  0.98409139    -0.15700
C449        C  0.42314585  0.57778759  0.87951983     0.14400
C450        C  0.41834018  0.56371584  0.84902400     0.01300
C451        C  0.40164070  0.53731473  0.84989423     0.16300
C452        C  0.39077865  0.52495734  0.88100974     0.25700
C453        C  0.39644613  0.53880521  0.91213013    -0.40600
C454        C  0.41228090  0.56553983  0.91073015     0.32800
C455        C  0.43235701  0.57616378  0.81695090     0.01400
F456        F  0.39686594  0.52325238  0.82080891    -0.12900
F457        F  0.41794218  0.57990872  0.93964515    -0.13500
C458        C  0.45885697  0.58687026  0.81585101     0.16300
C459        C  0.47227381  0.59735713  0.78531679     0.25700
C460        C  0.45945421  0.59745368  0.75496973    -0.40600
C461        C  0.43280306  0.58691451  0.75633825     0.32700
C462        C  0.41943186  0.57634375  0.78702441     0.14400
F463        F  0.47170215  0.58630197  0.84419094    -0.12900
F464        F  0.41954940  0.58666498  0.72801426    -0.13400
F465        F  0.49777711  0.60663382  0.78541426    -0.15700
F466        F  0.39381006  0.56625701  0.78755114    -0.14300
F467        F  0.43883470  0.60343425  0.87915053    -0.14300
F468        F  0.37544788  0.49926177  0.88061636    -0.15700
C469        C  0.08111829  0.92174444  0.78867649     0.14400
C470        C  0.06815951  0.92137905  0.81873564     0.01300
C471        C  0.04150373  0.90812964  0.81880911     0.16300
C472        C  0.02789125  0.89614143  0.78894892     0.25700
C473        C  0.04072944  0.89741770  0.75802634    -0.40600
C474        C  0.06758223  0.90990923  0.75855548     0.32800
C475        C  0.08218877  0.93670789  0.84912444     0.01400
F476        F  0.02862420  0.90750234  0.84769238    -0.12900
F477        F  0.08086473  0.91125828  0.72977828    -0.13500
C478        C  0.08272273  0.95971813  0.85560547     0.16300
C479        C  0.09467809  0.97388938  0.88506279     0.25700
C480        C  0.10605423  0.96513000  0.90896571    -0.40600
C481        C  0.10561442  0.94208256  0.90240746     0.32700
C482        C  0.09397221  0.92809613  0.87245932     0.14400
F483        F  0.07117421  0.96821526  0.83360185    -0.12900
F484        F  0.11647864  0.93317076  0.92490525    -0.13400
F485        F  0.08886407  0.49465830  0.89286101    -0.15700
F486        F  0.09360140  0.90585096  0.86664602    -0.14300
F487        F  0.10693218  0.93450919  0.78811516    -0.14300
F488        F  0.50195670  0.88675783  0.78915737    -0.15700
C489        C  0.02412512  0.78470943  0.65436311     0.14400
C490        C  0.50161753  0.76117034  0.67000491     0.01300
C491        C  0.48073066  0.76224994  0.68332626     0.16300
C492        C  0.48040690  0.78515773  0.68313442     0.25700
C493        C  0.50103129  0.80755375  0.66936225    -0.40600
C494        C  0.02375035  0.80761441  0.65490376     0.32800
C495        C  0.00313105  0.73772243  0.66522403     0.01400
F496        F  0.46064507  0.74103365  0.69678296    -0.12900
F497        F  0.04456732  0.82905863  0.64335973    -0.13500
C498        C  0.01953351  0.73391503  0.68672386     0.16300
C499        C  0.01840838  0.71028363  0.68761255     0.25700
C500        C  0.00083990  0.68998968  0.66681662    -0.40600
C501        C  0.48348717  0.69345171  0.64808686     0.32700
C502        C  0.48407236  0.71678232  0.64848266     0.14400
F503        F  0.03620099  0.75292380  0.70756623    -0.12900
F504        F  0.46658749  0.67490802  0.62688289    -0.13400
F505        F  0.03425146  0.70725194  0.70931723    -0.15700
F506        F  0.46783102  0.72008583  0.62793011    -0.14300
F507        F  0.04495485  0.78455346  0.64201473    -0.14300
F508        F  0.45972962  0.78520807  0.69625911    -0.15700
C509        C  0.47416685  0.50928146  0.66439041     0.14400
C510        C  0.99656286  0.50897003  0.65801365    -0.01100
C511        C  0.01930894  0.53206418  0.65293357     0.16300
C512        C  0.01944808  0.55513534  0.65435028     0.25700
C513        C  0.99678710  0.55540504  0.66053494    -0.40600
C514        C  0.47449392  0.53246331  0.66520925     0.32800
C515        C  0.50162202  0.98742774  0.66706924     0.01400
F516        F  0.04151794  0.53229221  0.64762477    -0.12900
F517        F  0.45262149  0.53251091  0.67224347    -0.13500
C518        C  0.51298893  0.98121491  0.64034157     0.16300
C519        C  0.51262422  0.95800442  0.64072033     0.25700
C520        C  0.50062128  0.94048340  0.66779728    -0.40600
C521        C  0.99356443  0.94878252  0.69969809     0.32700
C522        C  0.99422264  0.97220620  0.69942593     0.14400
F523        F  0.52447157  0.99772157  0.61386030    -0.12900
F524        F  0.98772723  0.93512846  0.72940483    -0.13400
F525        F  0.52359309  0.95250083  0.61419008    -0.15700
F526        F  0.98851670  0.98057118  0.72862810    -0.14300
F527        F  0.46584296  0.99411930  0.62879364    -0.14300
F528        F  0.04168293  0.57720829  0.64930901    -0.15700
C529        C  0.03982768  0.64279537  0.51444055     0.14400
C530        C  0.06448232  0.64626998  0.51518607     0.01300
C531        C  0.07634780  0.64844661  0.54699624     0.16300
C532        C  0.06336170  0.64593440  0.57771729     0.25700
C533        C  0.03805863  0.64104856  0.57722934    -0.40600
C534        C  0.02668170  0.64016666  0.54517190     0.32800
C535        C  0.07693229  0.64515098  0.48307639     0.01400
F536        F  0.10036226  0.65226954  0.54824623    -0.12900
F537        F  0.50296581  0.63517680  0.54283697    -0.13500
C538        C  0.08351589  0.66355310  0.45709360     0.16300
C539        C  0.09449198  0.66163649  0.42636216     0.25700
C540        C  0.09910528  0.64129707  0.42126386    -0.40600
C541        C  0.09276039  0.62310693  0.44761574     0.32700
C542        C  0.08173354  0.62500910  0.47814736     0.14400
F543        F  0.07936054  0.68337386  0.46155617    -0.12900
F544        F  0.09596872  0.60268187  0.44318150    -0.13400
F545        F  0.10066905  0.67969380  0.40166394    -0.15700
F546        F  0.07481619  0.60658486  0.50250471    -0.14300
F547        F  0.02800562  0.64067296  0.48390502    -0.14300
F548        F  0.07526653  0.64705499  0.60783494    -0.15700
C549        C  0.12061190  0.58983163  0.18062082     0.14400
C550        C  0.14125880  0.58577685  0.17664368     0.01300
C551        C  0.15956959  0.59330837  0.20275805     0.16300
C552        C  0.15670065  0.60383098  0.23327891     0.25700
C553        C  0.13544673  0.60700246  0.23799883    -0.40600
C554        C  0.11775436  0.60048017  0.21097345     0.32800
C555        C  0.14249114  0.57189560  0.14631889     0.01400
F556        F  0.17984204  0.58982242  0.19899969    -0.12900
F557        F  0.09692432  0.60306922  0.21459755    -0.13500
C558        C  0.15475382  0.58496904  0.11617924     0.16300
C559        C  0.15398159  0.57147540  0.08658131     0.25700
C560        C  0.14074635  0.54453450  0.08666500    -0.40600
C561        C  0.12927015  0.53163528  0.11762245     0.32700
C562        C  0.13011329  0.54524359  0.14705658     0.14400
F563        F  0.16689230  0.61080728  0.11519231    -0.12900
F564        F  0.11632835  0.50580416  0.11927720    -0.13400
F565        F  0.16570609  0.58488595  0.05771008    -0.15700
F566        F  0.11812095  0.53236011  0.17613672    -0.14300
F567        F  0.10271757  0.58258413  0.15553431    -0.14300
F568        F  0.17460434  0.61074901  0.25828333    -0.15700
C569        C  0.41967362  0.84301865  0.54969077     0.14400
C570        C  0.43221336  0.85007906  0.51773510     0.01300
C571        C  0.45849443  0.85903143  0.51673220     0.16300
C572        C  0.47215232  0.86184912  0.54713648     0.25700
C573        C  0.45986872  0.85591591  0.57948981    -0.40600
C574        C  0.43327085  0.84594808  0.58017495     0.32800
C575        C  0.41843498  0.85030120  0.48600742     0.01400
F576        F  0.47127429  0.86631605  0.48638207    -0.12900
F577        F  0.42032952  0.83972436  0.61041779    -0.13500
C578        C  0.40593135  0.86450711  0.48531702     0.16300
C579        C  0.39474426  0.86676984  0.45500977     0.25700
C580        C  0.39598410  0.85508973  0.42420366    -0.40600
C581        C  0.40784718  0.84014803  0.42521354     0.32700
C582        C  0.41885862  0.83773266  0.45581315     0.14400
F583        F  0.40559190  0.87734312  0.51372247    -0.12900
F584        F  0.40919010  0.82812965  0.39653004    -0.13400
F585        F  0.38363780  0.88141205  0.45576054    -0.15700
F586        F  0.43010787  0.82321692  0.45588949    -0.14300
F587        F  0.39418321  0.83366516  0.55147241    -0.14300
F588        F  0.49759004  0.87111088  0.54475642    -0.15700
C589        C  0.00830762  0.53658620  0.33888448     0.14400
C590        C  0.00843754  0.51349188  0.33859808     0.01300
C591        C  0.03171215  0.51391039  0.33633349     0.16300
C592        C  0.05453844  0.53706210  0.33400583     0.25700
C593        C  0.05448238  0.56027352  0.33366663    -0.40600
C594        C  0.03111625  0.55979014  0.33631160     0.32800
C595        C  0.48873430  0.98499874  0.33507792     0.01400
F596        F  0.53296562  0.49096571  0.33446829    -0.12900
F597        F  0.03034923  0.58177846  0.33716941    -0.13500
C598        C  0.48206784  0.96778923  0.30752104     0.16300
C599        C  0.45916257  0.94460645  0.30813948     0.25700
C600        C  0.44213831  0.93854866  0.33584405    -0.40600
C601        C  0.44881113  0.95576125  0.36334096     0.32700
C602        C  0.47206975  0.97850574  0.36325975     0.14400
F603        F  0.49733222  0.97373400  0.27945073    -0.12900
F604        F  0.43302110  0.95038851  0.39070390    -0.13400
F605        F  0.45325114  0.92854065  0.28098596    -0.15700
F606        F  0.47844438  0.99408742  0.39102519    -0.14300
F607        F  0.99043222  0.03162740  0.34609426    -0.14300
F608        F  0.07664668  0.53668994  0.33142092    -0.15700
C609        C  0.21104821  0.74003720  0.32280011     0.14400
C610        C  0.23388079  0.73976169  0.32719121     0.01300
C611        C  0.23305338  0.71635275  0.33116130     0.16300
C612        C  0.20979015  0.69357026  0.33121430     0.25700
C613        C  0.18674778  0.69369608  0.32730372    -0.40600
C614        C  0.18768002  0.71722699  0.32273992     0.32800
C615        C  0.25860381  0.76383935  0.32818301     0.01400
F616        F  0.25483905  0.71558573  0.33569734    -0.12900
F617        F  0.16600288  0.71828890  0.31892669    -0.13500
C618        C  0.26357608  0.78192655  0.35397794     0.16300
C619        C  0.28722364  0.80430715  0.35566033     0.25700
C620        C  0.30643315  0.80900342  0.33155207    -0.40600
C621        C  0.30129616  0.79079606  0.30563352     0.32700
C622        C  0.27761304  0.76847797  0.30399269     0.14400
F623        F  0.24571501  0.77756315  0.37816647    -0.12900
F624        F  0.31899093  0.79472925  0.28138771    -0.13400
F625        F  0.29147710  0.82102734  0.38148177    -0.15700
F626        F  0.27309976  0.75146799  0.27846044    -0.14300
F627        F  0.21142443  0.76244089  0.31833728    -0.14300
F628        F  0.20994724  0.67136332  0.33476331    -0.15700
C629        C  0.34774989  0.92756472  0.12649894     0.14400
C630        C  0.35831453  0.94105412  0.15703167     0.01300
C631        C  0.36993461  0.96771430  0.15683520     0.16300
C632        C  0.37212316  0.98079667  0.12606698     0.25700
C633        C  0.36265499  0.96736644  0.09483297    -0.40600
C634        C  0.34979020  0.94048548  0.09575521     0.32800
C635        C  0.35902553  0.92729541  0.18817988     0.01400
F636        F  0.38030440  0.98116897  0.18611828    -0.12900
F637        F  0.33981517  0.92652208  0.06675316    -0.13500
C638        C  0.37317638  0.91476994  0.18778974     0.16300
C639        C  0.37423100  0.90172339  0.21689924     0.25700
C640        C  0.36117364  0.90099846  0.24727674    -0.40600
C641        C  0.34666298  0.91336445  0.24734795     0.32700
C642        C  0.34572787  0.92647261  0.21809648     0.14400
F643        F  0.38666591  0.91584758  0.15934741    -0.12900
F644        F  0.33339857  0.91291002  0.27571048    -0.13400
F645        F  0.38881782  0.89058466  0.21551953    -0.15700
F646        F  0.33173348  0.93827239  0.21890670    -0.14300
F647        F  0.33593904  0.90173424  0.12634922    -0.14300
F648        F  0.38435687  0.00664183  0.12683229    -0.15700
O649        O  0.91266460  0.39814403  0.32647387    -0.72700
O650        O  0.84935949  0.33540149  0.32463327    -0.72800
O651        O  0.87262303  0.37678162  0.28313004    -0.72800
O652        O  0.88974202  0.35695978  0.36847572    -0.72900
O653        O  0.87142171  0.37525631  0.39719695    -0.72800
O654        O  0.85436282  0.39506681  0.31183930    -0.72800
O655        O  0.83097228  0.35357504  0.35346126    -0.72800
O656        O  0.89439540  0.41637059  0.35558768    -0.72800
Ni657      Ni  0.88168203  0.36609142  0.32470739     1.25400
Ni658      Ni  0.86205472  0.38562223  0.35557094     1.25400
C659        C  0.91394051  0.41765060  0.34111699     0.89400
C660        C  0.82961410  0.33416952  0.33836445     0.89400
C661        C  0.86113687  0.38967490  0.28328934     0.89400
C662        C  0.88406188  0.36351253  0.39699327     0.89600
O663        O  0.58207735  0.10149393  0.32052290    -0.72700
O664        O  0.64443850  0.16522969  0.31811165    -0.72800
O665        O  0.62155108  0.12375759  0.27630077    -0.72800
O666        O  0.60457296  0.14261799  0.36204355    -0.72900
O667        O  0.62326852  0.12440198  0.39031241    -0.72800
O668        O  0.64174663  0.10694169  0.30424457    -0.72800
O669        O  0.66367970  0.14780413  0.34695501    -0.72800
O670        O  0.60184832  0.08374323  0.34748013    -0.72800
Ni671      Ni  0.61255038  0.13396542  0.31822429     1.25400
Ni672      Ni  0.63339844  0.11518166  0.34829685     1.25400
C673        C  0.58181506  0.08207417  0.33404282     0.89400
C674        C  0.66433830  0.16709681  0.33238446     0.89400
C675        C  0.63389780  0.11171526  0.27604894     0.89400
C676        C  0.61056292  0.13611160  0.39039520     0.89600
O677        O  0.98273103  0.39722953  0.68397163    -0.72700
O678        O  0.98206096  0.33393170  0.68555153    -0.72800
O679        O  0.00257694  0.37610482  0.72608341    -0.72800
O680        O  0.96235241  0.35555629  0.64368209    -0.72900
O681        O  0.49594099  0.37117126  0.61206692    -0.72800
O682        O  0.53675939  0.39283896  0.69414697    -0.72800
O683        O  0.51627666  0.35023107  0.65439259    -0.72800
O684        O  0.51639168  0.41323666  0.65137808    -0.72800
Ni685      Ni  0.98121153  0.36502422  0.68598548     1.25400
Ni686      Ni  0.51762499  0.38238773  0.65191040     1.25400
C687        C  0.00000801  0.41597920  0.66687943     0.89400
C688        C  0.99965195  0.33204345  0.67010582     0.89400
C689        C  0.52592615  0.38810379  0.72372698     0.89400
C690        C  0.97324314  0.36106340  0.61415056     0.89600
O691        O  0.52031976  0.10273902  0.67933062    -0.72700
O692        O  0.51749998  0.16433926  0.68339420    -0.72800
O693        O  0.49992528  0.12208371  0.72305950    -0.72800
O694        O  0.53818753  0.14498466  0.63960928    -0.72900
O695        O  0.00267272  0.12625313  0.60985878    -0.72800
O696        O  0.96378270  0.10437592  0.69351608    -0.72800
O697        O  0.98200217  0.14626040  0.65277208    -0.72800
O698        O  0.98419700  0.08441052  0.65059008    -0.72800
Ni699      Ni  0.52025672  0.13424214  0.68239181     1.25400
Ni700      Ni  0.98190109  0.11473409  0.65056279     1.25400
C701        C  0.50259371  0.08321477  0.66398478     0.89400
C702        C  0.49903209  0.16530675  0.66890108     0.89400
C703        C  0.97545154  0.10964684  0.72250433     0.89400
C704        C  0.52668700  0.13920701  0.61054457     0.89600
O705        O  0.92061388  0.02094107  0.01685656    -0.72700
O706        O  0.85935613  0.02461666  0.01709400    -0.72800
O707        O  0.88107604  0.00565247  0.06061947    -0.72800
O708        O  0.89910730  0.04009160  0.97363717    -0.72900
O709        O  0.87335003  0.50007556  0.94605600    -0.72800
O710        O  0.85658834  0.46444355  0.03215664    -0.72800
O711        O  0.83370524  0.48315429  0.99050581    -0.72800
O712        O  0.89609730  0.48168594  0.98775039    -0.72800
Ni713      Ni  0.89073065  0.02415062  0.01802764     1.25400
Ni714      Ni  0.86416196  0.48102729  0.98815042     1.25400
C715        C  0.92053322  0.00174027  0.00297108     0.89400
C716        C  0.83917753  0.00662632  0.00326825     0.89400
C717        C  0.86389933  0.47689383  0.06043676     0.89400
C718        C  0.89190800  0.02733893  0.94558315     0.89600
O719        O  0.58533369  0.48546197  0.01100113    -0.72700
O720        O  0.64892954  0.48723971  0.01266924    -0.72800
O721        O  0.62540812  0.50493734  0.05414090    -0.72800
O722        O  0.60858641  0.46793142  0.96898271    -0.72900
O723        O  0.62935790  0.00446711  0.94032522    -0.72800
O724        O  0.64641999  0.04133636  0.02539295    -0.72800
O725        O  0.67063397  0.02469167  0.98307140    -0.72800
O726        O  0.60579751  0.02106684  0.98282210    -0.72800
Ni727      Ni  0.61653010  0.48509925  0.01268386     1.25400
Ni728      Ni  0.63875936  0.02417546  0.98186069     1.25400
C729        C  0.58662302  0.00211774  0.99706034     0.89400
C730        C  0.67302653  0.00713303  0.99805861     0.89400
C731        C  0.64009665  0.02921001  0.05406971     0.89400
C732        C  0.61356514  0.48028300  0.94052250     0.89600
C733        C  0.52943487  0.51492632  0.97319911     0.14400
C734        C  0.51415892  0.99909544  0.99909906     0.01300
C735        C  0.51567005  0.97719463  0.00655049     0.16300
C736        C  0.53909586  0.97799594  0.00538247     0.25700
C737        C  0.56155300  0.00083032  0.99702315    -0.40600
C738        C  0.55292431  0.51589699  0.97242259     0.32800
C739        C  0.98886983  0.99722143  0.00222183     0.01400
F740        F  0.49454805  0.95514580  0.01577001    -0.12900
F741        F  0.56955304  0.52917807  0.94679854    -0.13500
C742        C  0.96929292  0.48844650  0.97357515     0.16300
C743        C  0.94595948  0.48784243  0.97426881     0.25700
C744        C  0.94399339  0.00003703  0.00287978    -0.40600
C745        C  0.96226636  0.01163620  0.02912759     0.32700
C746        C  0.98450465  0.01015491  0.02879249     0.14400
F747        F  0.97449310  0.47714407  0.94715763    -0.12900
F748        F  0.95848439  0.02411208  0.05537578    -0.13400
F749        F  0.92930120  0.47640422  0.94800249    -0.15700
F750        F  0.50754001  0.03313861  0.04201250    -0.14300
F751        F  0.02443489  0.52806591  0.94920436    -0.14300
F752        F  0.53967059  0.95633051  0.01236132    -0.15700
C753        C  0.71684158  0.48420204  0.01290255     0.14400
C754        C  0.74570971  0.01033189  0.99979173     0.01300
C755        C  0.74367199  0.03057807  0.98568370     0.16300
C756        C  0.72019491  0.02974890  0.98529180     0.25700
C757        C  0.69823572  0.00854061  0.99898876    -0.40600
C758        C  0.69383530  0.48408882  0.01099273     0.32800
C759        C  0.77013683  0.01044542  0.99919590     0.01400
F760        F  0.76431843  0.05090049  0.97155641    -0.12900
F761        F  0.67219102  0.46224893  0.01934177    -0.13500
C762        C  0.76585387  0.48707228  0.98429726     0.16300
C763        C  0.78820079  0.48581051  0.98473747     0.25700
C764        C  0.81552135  0.00819943  0.00169249    -0.40600
C765        C  0.81405113  0.02824728  0.01788021     0.32700
C766        C  0.79155205  0.02930855  0.01661861     0.14400
F767        F  0.74624416  0.47061777  0.96405374    -0.12900
F768        F  0.83419363  0.04669240  0.03540359    -0.13400
F769        F  0.78925408  0.46790036  0.96504539    -0.15700
F770        F  0.79044295  0.04837636  0.03329488    -0.14300
F771        F  0.71676674  0.46287294  0.02386402    -0.14300
F772        F  0.71909646  0.04974686  0.97138741    -0.15700
C773        C  0.92564707  0.08012764  0.87944977     0.14400
C774        C  0.91932870  0.06634035  0.84857376     0.01300
C775        C  0.90177510  0.04011460  0.84918679     0.16300
C776        C  0.89197087  0.02752053  0.88052371     0.25700
C777        C  0.89963946  0.04099441  0.91193740    -0.40600
C778        C  0.91590904  0.06767414  0.91079683     0.32800
C779        C  0.93341569  0.07868951  0.81661401     0.01400
F780        F  0.89525560  0.02640762  0.81958504    -0.12900
F781        F  0.92324453  0.08178648  0.94004326    -0.13500
C782        C  0.95978183  0.08843760  0.81557387     0.16300
C783        C  0.97340682  0.09889491  0.78527755     0.25700
C784        C  0.96092441  0.09982154  0.75509967    -0.40600
C785        C  0.93445447  0.09036327  0.75635870     0.32700
C786        C  0.92083713  0.07985978  0.78688708     0.14400
F787        F  0.97227046  0.08696130  0.84375222    -0.12900
F788        F  0.92170335  0.09129750  0.72815483    -0.13400
F789        F  0.99873853  0.10723418  0.78536595    -0.15700
F790        F  0.89539404  0.07089975  0.78748633    -0.14300
F791        F  0.94201854  0.10565483  0.87931174    -0.14300
F792        F  0.87565283  0.00199803  0.87999249    -0.15700
C793        C  0.57956265  0.43232407  0.78362161     0.14400
C794        C  0.56858024  0.42337045  0.81608956     0.01300
C795        C  0.54445806  0.40151019  0.81829963     0.16300
C796        C  0.53099358  0.38932020  0.78834990     0.25700
C797        C  0.54149199  0.39879020  0.75550788    -0.40600
C798        C  0.56628261  0.42009506  0.75359717     0.32800
C799        C  0.58116306  0.43826278  0.84739605     0.01400
F800        F  0.53348971  0.39262137  0.84952026    -0.12900
F801        F  0.57723931  0.43003273  0.72270013    -0.13500
C802        C  0.57899137  0.45964078  0.85545395     0.16300
C803        C  0.59021046  0.47364396  0.88531768     0.25700
C804        C  0.60358465  0.46633461  0.90787001    -0.40600
C805        C  0.60587629  0.44498132  0.89976094     0.32700
C806        C  0.59483847  0.43110224  0.86955885     0.14400
F807        F  0.56540304  0.46654315  0.83474648    -0.12900
F808        F  0.61908542  0.43783664  0.92081115    -0.13400
F809        F  0.60106095  0.99971943  0.88591093    -0.15700
F810        F  0.59745410  0.41070530  0.86191175    -0.14300
F811        F  0.60285610  0.45351753  0.78101589    -0.14300
F812        F  0.00730954  0.37062053  0.79190488    -0.15700
C813        C  0.51999732  0.28246913  0.66635071     0.14400
C814        C  0.99769071  0.26016168  0.66971038     0.01300
C815        C  0.97530692  0.26105595  0.67521638     0.16300
C816        C  0.97590923  0.28439750  0.67528089     0.25700
C817        C  0.99898060  0.30731011  0.66992488    -0.40600
C818        C  0.52046986  0.30572213  0.66611396     0.32800
C819        C  0.49666985  0.23504094  0.67134975     0.01400
F820        F  0.95289523  0.23932915  0.68103054    -0.12900
F821        F  0.54318308  0.32748941  0.66236222    -0.13500
C822        C  0.51197756  0.23103144  0.69476479     0.16300
C823        C  0.51272179  0.20838749  0.69411696     0.25700
C824        C  0.49787803  0.18912717  0.67022497    -0.40600
C825        C  0.98220033  0.19324682  0.64702335     0.32700
C826        C  0.98175775  0.21606364  0.64735441     0.14400
F827        F  0.52609957  0.24903649  0.71851547    -0.12900
F828        F  0.96716120  0.17502662  0.62405510    -0.13400
F829        F  0.52782463  0.20532119  0.71716458    -0.15700
F830        F  0.96665429  0.21936392  0.62456630    -0.14300
F831        F  0.54205773  0.28228654  0.66162217    -0.14300
F832        F  0.95378855  0.28446115  0.67998866    -0.15700
C833        C  0.98340801  0.01421345  0.64824124     0.14400
C834        C  0.50195716  0.01186145  0.66623063    -0.01100
C835        C  0.52067568  0.03290079  0.68424266     0.16300
C836        C  0.52126640  0.05623751  0.68301390     0.25700
C837        C  0.50291140  0.05885118  0.66382213    -0.40600
C838        C  0.98400005  0.03753217  0.64696566     0.32800
C839        C  0.99689866  0.48484302  0.65971928     0.01400
F840        F  0.53846388  0.03081925  0.70294417    -0.12900
F841        F  0.96655461  0.03930873  0.62704158    -0.13500
C842        C  0.00556756  0.47670568  0.63166742     0.16300
C843        C  0.00689000  0.45440872  0.63411786     0.25700
C844        C  0.99927956  0.43981529  0.66455337    -0.40600
C845        C  0.49017488  0.44756626  0.69299895     0.32700
C846        C  0.48953322  0.47020296  0.69069358     0.14400
F847        F  0.01237972  0.49016351  0.60176051    -0.12900
F848        F  0.48349372  0.43436306  0.72311252    -0.13400
F849        F  0.01490618  0.44670974  0.60641106    -0.15700
F850        F  0.48245367  0.47853677  0.71868259    -0.14300
F851        F  0.95153769  0.48701945  0.66785967    -0.14300
F852        F  0.53973534  0.07612330  0.70089362    -0.15700
C853        C  0.54338391  0.14590263  0.51536653     0.14400
C854        C  0.56849108  0.15054824  0.51648867     0.01300
C855        C  0.58079088  0.15490431  0.54845526     0.16300
C856        C  0.56767560  0.15274007  0.57897983     0.25700
C857        C  0.54180888  0.14600851  0.57817256    -0.40600
C858        C  0.53016934  0.14371611  0.54589531     0.32800
C859        C  0.58097263  0.14838552  0.48486973     0.01400
F860        F  0.60536473  0.16041189  0.55015720    -0.12900
F861        F  0.00699793  0.13944381  0.54454767    -0.13500
C862        C  0.58459953  0.16383480  0.45599480     0.16300
C863        C  0.59491057  0.16039983  0.42558438     0.25700
C864        C  0.60184308  0.14142190  0.42349903    -0.40600
C865        C  0.59879611  0.12646184  0.45287728     0.32700
C866        C  0.58837678  0.12984946  0.48311540     0.14400
F867        F  0.57813649  0.18225847  0.45725461    -0.12900
F868        F  0.60476341  0.10767636  0.45199208    -0.13400
F869        F  0.59809312  0.17569031  0.39820165    -0.15700
F870        F  0.58448810  0.11420820  0.51035088    -0.14300
F871        F  0.53112958  0.14200079  0.48477676    -0.14300
F872        F  0.58006598  0.15594592  0.60931208    -0.15700
C873        C  0.62345616  0.08568844  0.18505141     0.14400
C874        C  0.64361661  0.08082325  0.18105883     0.01300
C875        C  0.66121406  0.08700910  0.20799972     0.16300
C876        C  0.65849156  0.09760352  0.23865816     0.25700
C877        C  0.63810045  0.10223547  0.24286339    -0.40600
C878        C  0.62072449  0.09630581  0.21553859     0.32800
C879        C  0.64567281  0.06871935  0.14898019     0.01400
F880        F  0.68112749  0.08292435  0.20449405    -0.12900
F881        F  0.60035821  0.09970654  0.21880048    -0.13500
C882        C  0.64899211  0.08098937  0.11712968     0.16300
C883        C  0.64829840  0.06861392  0.08642938     0.25700
C884        C  0.64400853  0.04346438  0.08688133    -0.40600
C885        C  0.64167193  0.03160691  0.11907772     0.32700
C886        C  0.64255377  0.04415561  0.14976737     0.14400
F887        F  0.65241440  0.10488756  0.11574706    -0.12900
F888        F  0.63805357  0.00765683  0.12098784    -0.13400
F889        F  0.65075226  0.08099384  0.05624405    -0.15700
F890        F  0.63920990  0.03184793  0.18025202    -0.14300
F891        F  0.60582783  0.07929634  0.15976051    -0.14300
F892        F  0.67592628  0.10351254  0.26408277    -0.15700
C893        C  0.91815375  0.34791146  0.55463157     0.14400
C894        C  0.92951298  0.35197323  0.52204105     0.01300
C895        C  0.95463130  0.35683564  0.51959340     0.16300
C896        C  0.96857178  0.35874859  0.54935603     0.25700
C897        C  0.95760199  0.35574841  0.58230667    -0.40600
C898        C  0.93193889  0.34965739  0.58442451     0.32800
C899        C  0.91595826  0.35330222  0.49094568     0.01400
F900        F  0.96612066  0.36102054  0.48838618    -0.12900
F901        F  0.92034666  0.34647429  0.61537656    -0.13500
C902        C  0.90930114  0.37234144  0.48836059     0.16300
C903        C  0.89808076  0.37499759  0.45833976     0.25700
C904        C  0.89336155  0.35870305  0.43004368    -0.40600
C905        C  0.89941221  0.33914984  0.43304855     0.32700
C906        C  0.91059950  0.33648978  0.46325457     0.14400
F907        F  0.91473560  0.38916719  0.51444958    -0.12900
F908        F  0.89452233  0.32259628  0.40677863    -0.13400
F909        F  0.89309317  0.39444001  0.45641664    -0.15700
F910        F  0.91627126  0.31753114  0.46548058    -0.14300
F911        F  0.89377997  0.34283389  0.55764733    -0.14300
F912        F  0.99302974  0.36421121  0.54578705    -0.15700
C913        C  0.51223938  0.03256591  0.34044374     0.14400
C914        C  0.51269303  0.00992139  0.33425793     0.01300
C915        C  0.53613826  0.01131359  0.32758773     0.16300
C916        C  0.55863038  0.03486194  0.32723548     0.25700
C917        C  0.55810864  0.05734685  0.33399615    -0.40600
C918        C  0.53477096  0.05602797  0.34061231     0.32800
C919        C  0.98428445  0.48891038  0.33959714     0.01400
F920        F  0.03795935  0.98884479  0.32783053    -0.12900
F921        F  0.53384950  0.07741270  0.34811175    -0.13500
C922        C  0.97760226  0.47185616  0.31194891     0.16300
C923        C  0.95483656  0.44858564  0.31261317     0.25700
C924        C  0.93822877  0.44204291  0.34087564    -0.40600
C925        C  0.94490687  0.45917668  0.36854165     0.32700
C926        C  0.96781342  0.48239744  0.36794063     0.14400
F927        F  0.99291111  0.47804211  0.28389451    -0.12900
F928        F  0.92956555  0.45318589  0.39653404    -0.13400
F929        F  0.94866463  0.43282363  0.28507036    -0.15700
F930        F  0.97414942  0.49834519  0.39529015    -0.14300
F931        F  0.48740135  0.53631683  0.34446794    -0.14300
F932        F  0.58087721  0.03575767  0.31956270    -0.15700
C933        C  0.71083003  0.23820022  0.32919325     0.14400
C934        C  0.73423763  0.23901125  0.33278807     0.01300
C935        C  0.73461026  0.21612639  0.33598637     0.16300
C936        C  0.71193265  0.19276286  0.33571514     0.25700
C937        C  0.68838864  0.19184586  0.33220314    -0.40600
C938        C  0.68809881  0.21484968  0.32889923     0.32800
C939        C  0.75829630  0.26369383  0.33358160     0.01400
F940        F  0.75698352  0.21643398  0.33997021    -0.12900
F941        F  0.66580374  0.21484640  0.32616741    -0.13500
C942        C  0.76242274  0.28176745  0.35904052     0.16300
C943        C  0.78546977  0.30478057  0.36045540     0.25700
C944        C  0.80493771  0.31004786  0.33653985    -0.40600
C945        C  0.80054997  0.29198283  0.31073845     0.32700
C946        C  0.77743366  0.26907315  0.30927695     0.14400
F947        F  0.74434685  0.27681554  0.38315245    -0.12900
F948        F  0.81841276  0.29663288  0.28642055    -0.13400
F949        F  0.78890866  0.32156695  0.38583081    -0.15700
F950        F  0.77358129  0.25221520  0.28379818    -0.14300
F951        F  0.71001150  0.26006448  0.32566424    -0.14300
F952        F  0.71311557  0.17104769  0.33845632    -0.15700
C953        C  0.84310631  0.42275228  0.12533769     0.14400
C954        C  0.85408947  0.43605012  0.15595336     0.01300
C955        C  0.86706143  0.46281781  0.15543441     0.16300
C956        C  0.86951815  0.47606887  0.12478673     0.25700
C957        C  0.85925016  0.46283591  0.09369363    -0.40600
C958        C  0.84573856  0.43592064  0.09454238     0.32800
C959        C  0.85338273  0.42217889  0.18795963     0.01400
F960        F  0.87838618  0.47624590  0.18440335    -0.12900
F961        F  0.83538198  0.42213896  0.06549812    -0.13500
C962        C  0.86311263  0.40546930  0.18801192     0.16300
C963        C  0.86455656  0.39402764  0.21860986     0.25700
C964        C  0.85663121  0.39931812  0.25015366    -0.40600
C965        C  0.84592910  0.41532697  0.24973079     0.32700
C966        C  0.84428344  0.42653660  0.21896051     0.14400
F967        F  0.87235779  0.40108397  0.15859914    -0.12900
F968        F  0.83756963  0.42074872  0.27915941    -0.13400
F969        F  0.87444603  0.37832034  0.21725438    -0.15700
F970        F  0.83401023  0.44193168  0.21951925    -0.14300
F971        F  0.82992546  0.39688800  0.12518323    -0.14300
F972        F  0.88273688  0.50191593  0.12556997    -0.15700
O973        O  0.91584048  0.89522501  0.32225802    -0.72700
O974        O  0.85155955  0.83376663  0.31912011    -0.72800
O975        O  0.87587720  0.87619673  0.27900519    -0.72800
O976        O  0.89209578  0.85361618  0.36317053    -0.72900
O977        O  0.87444196  0.87205480  0.39288677    -0.72800
O978        O  0.85860278  0.89475284  0.30933638    -0.72800
O979        O  0.83403444  0.85223951  0.34917211    -0.72800
O980        O  0.89859513  0.91383272  0.35275640    -0.72800
Ni981      Ni  0.88434479  0.86390775  0.31983149     1.25400
Ni982      Ni  0.86570157  0.88375708  0.35211298     1.25400
C983        C  0.91781172  0.91469867  0.33780778     0.89400
C984        C  0.83209725  0.83281124  0.33336011     0.89400
C985        C  0.86541395  0.89006617  0.28036038     0.89400
C986        C  0.88670117  0.85995796  0.39213263     0.89600
O987        O  0.58023977  0.60354916  0.31878358    -0.72700
O988        O  0.64311428  0.66728314  0.31531336    -0.72800
O989        O  0.61926775  0.62616519  0.27330954    -0.72800
O990        O  0.60364840  0.64443988  0.36037647    -0.72900
O991        O  0.62246959  0.62571337  0.38715517    -0.72800
O992        O  0.63961673  0.60894550  0.29989805    -0.72800
O993        O  0.66236975  0.64930856  0.34276445    -0.72800
O994        O  0.60018025  0.58548617  0.34433169    -0.72800
Ni995      Ni  0.61093746  0.63606440  0.31595775     1.25400
Ni996      Ni  0.63192753  0.61681585  0.34449377     1.25400
C997        C  0.57985122  0.58403330  0.33232447     0.89400
C998        C  0.66321421  0.66875978  0.32841193     0.89400
C999        C  0.63179787  0.61434085  0.27218594     0.89400
C1000       C  0.60962443  0.63724290  0.38813893     0.89600
O1001       O  0.98229112  0.89621213  0.68534507    -0.72700
O1002       O  0.98336956  0.83348837  0.68306951    -0.72800
O1003       O  0.00190088  0.87420095  0.72611663    -0.72800
O1004       O  0.96346656  0.85564866  0.64215496    -0.72900
O1005       O  0.49919036  0.87322297  0.61126788    -0.72800
O1006       O  0.53748522  0.89307178  0.69574904    -0.72800
O1007       O  0.51866671  0.85155170  0.65396758    -0.72800
O1008       O  0.51822797  0.91440056  0.65290837    -0.72800
Ni1009     Ni  0.98147712  0.86413744  0.68522669     1.25400
Ni1010     Ni  0.51965821  0.88361436  0.65241160     1.25400
C1011       C  0.99994404  0.91578068  0.66990369     0.89400
C1012       C  0.00170598  0.83261033  0.66804421     0.89400
C1013       C  0.52573068  0.88783987  0.72468813     0.89400
C1014       C  0.97498812  0.86203535  0.61307109     0.89600
O1015       O  0.51644994  0.59878322  0.67748534    -0.72700
O1016       O  0.51737173  0.66235027  0.68288407    -0.72800
O1017       O  0.49811620  0.61961854  0.72254628    -0.72800
O1018       O  0.53571341  0.64110277  0.63836559    -0.72900
O1019       O  0.99889834  0.62369769  0.60884138    -0.72800
O1020       O  0.96109017  0.60339149  0.69350754    -0.72800
O1021       O  0.98095380  0.64571391  0.65261478    -0.72800
O1022       O  0.97891793  0.58173267  0.64934525    -0.72800
Ni1023     Ni  0.51816997  0.63110991  0.68142096     1.25400
Ni1024     Ni  0.97865107  0.61311173  0.65006979     1.25400
C1025       C  0.49789669  0.57990180  0.66224581     0.89400
C1026       C  0.49964288  0.66462402  0.66832821     0.89400
C1027       C  0.97302152  0.60754476  0.72219324     0.89400
C1028       C  0.52393339  0.63551195  0.60951607     0.89600
O1029       O  0.91540515  0.51850751  0.01611855    -0.72700
O1030       O  0.85335438  0.52022112  0.01803787    -0.72800
O1031       O  0.87585550  0.50132880  0.06012523    -0.72800
O1032       O  0.89315564  0.53709594  0.97365448    -0.72900
O1033       O  0.87865897  0.00295522  0.94639492    -0.72800
O1034       O  0.86110686  0.96839578  0.03360604    -0.72800
O1035       O  0.83922650  0.98724713  0.99037673    -0.72800
O1036       O  0.90032588  0.98387987  0.98917432    -0.72800
Ni1037     Ni  0.88506400  0.52060114  0.01797141     1.25400
Ni1038     Ni  0.86906865  0.98429032  0.98897640     1.25400
C1039       C  0.91605204  0.49988299  0.00170189     0.89400
C1040       C  0.83322034  0.50203414  0.00451531     0.89400
C1041       C  0.86858049  0.98126792  0.06160245     0.89400
C1042       C  0.88657402  0.52443498  0.94542965     0.89600
O1043       O  0.58894804  0.98438130  0.01154722    -0.72700
O1044       O  0.65379894  0.98826993  0.01231530    -0.72800
O1045       O  0.62948175  0.00483867  0.05453028    -0.72800
O1046       O  0.61283868  0.96781092  0.96919518    -0.72900
O1047       O  0.62581983  0.50467477  0.94006867    -0.72800
O1048       O  0.64353287  0.54146329  0.02502618    -0.72800
O1049       O  0.66693502  0.52362507  0.98320564    -0.72800
O1050       O  0.60298956  0.52227360  0.98237354    -0.72800
Ni1051     Ni  0.62078615  0.98502992  0.01292199     1.25400
Ni1052     Ni  0.63557476  0.52431552  0.98158579     1.25400
C1053       C  0.58362422  0.50361162  0.99680346     0.89400
C1054       C  0.66852577  0.50567800  0.99850756     0.89400
C1055       C  0.63667407  0.52934215  0.05365490     0.89400
C1056       C  0.61733823  0.98005382  0.94067893     0.89600
C1057       C  0.53638064  0.02165405  0.98983520     0.14400
C1058       C  0.51162484  0.50105030  0.99904037     0.01300
C1059       C  0.51756914  0.48813859  0.02410111     0.16300
C1060       C  0.54097875  0.48903480  0.02337895     0.25700
C1061       C  0.55893130  0.50290574  0.99748910    -0.40600
C1062       C  0.55981875  0.02260117  0.98899819     0.32800
C1063       C  0.98709554  0.50047725  0.00006873     0.01400
F1064       F  0.50054220  0.47441690  0.04913690    -0.12900
F1065       F  0.58084634  0.04507450  0.98093793    -0.13500
C1066       C  0.97064696  0.98533719  0.97627318     0.16300
C1067       C  0.94830940  0.98664069  0.97659891     0.25700
C1068       C  0.94023705  0.49955956  0.00134163    -0.40600
C1069       C  0.95811134  0.51143702  0.02797444     0.32700
C1070       C  0.98127105  0.51177030  0.02738875     0.14400
F1071       F  0.97477767  0.97291847  0.95027047    -0.12900
F1072       F  0.95303851  0.52242121  0.05492232    -0.13400
F1073       F  0.93133544  0.97551409  0.95057310    -0.15700
F1074       F  0.49666134  0.51978949  0.05589789    -0.14300
F1075       F  0.03124276  0.03649125  0.96832499    -0.14300
F1076       F  0.54620248  0.47667955  0.04847865    -0.15700
C1077       C  0.72409679  0.98947679  0.01406294     0.14400
C1078       C  0.73973852  0.50604114  0.00381060     0.01300
C1079       C  0.73933004  0.52807964  0.99352212     0.16300
C1080       C  0.71628916  0.52810850  0.99176201     0.25700
C1081       C  0.69316915  0.50601188  0.00021518    -0.40600
C1082       C  0.70064991  0.98852421  0.01371376     0.32800
C1083       C  0.76379457  0.50533694  0.00401287     0.01400
F1084       F  0.76120374  0.54943273  0.98443235    -0.12900
F1085       F  0.68035062  0.96781984  0.02775053    -0.13500
C1086       C  0.77170763  0.99086352  0.98229630     0.16300
C1087       C  0.79406596  0.98968291  0.98350755     0.25700
C1088       C  0.80920767  0.50300964  0.00475267    -0.40600
C1089       C  0.80706108  0.52138150  0.02451112     0.32700
C1090       C  0.78455933  0.52246134  0.02415297     0.14400
F1091       F  0.75147204  0.97281408  0.96443756    -0.12900
F1092       F  0.82656673  0.53817856  0.04460373    -0.13400
F1093       F  0.79454015  0.97032058  0.96669305    -0.15700
F1094       F  0.78286802  0.53992245  0.04407861    -0.14300
F1095       F  0.72575787  0.96996865  0.02863810    -0.14300
F1096       F  0.71673719  0.54984295  0.98197672    -0.15700
C1097       C  0.92112780  0.57700227  0.87888485     0.14400
C1098       C  0.91731483  0.56286280  0.84867524     0.01300
C1099       C  0.90149179  0.53632247  0.84972518     0.16300
C1100       C  0.89055847  0.52393770  0.88078544     0.25700
C1101       C  0.89532088  0.53789589  0.91168131    -0.40600
C1102       C  0.91019363  0.56471774  0.91005049     0.32800
C1103       C  0.93136920  0.57549901  0.81671716     0.01400
F1104       F  0.89767657  0.52220597  0.82091862    -0.12900
F1105       F  0.91479146  0.57916122  0.93870144    -0.13500
C1106       C  0.95797927  0.58723723  0.81609808     0.16300
C1107       C  0.97148029  0.59801329  0.78569816     0.25700
C1108       C  0.95862647  0.59737495  0.75501754    -0.40600
C1109       C  0.93183690  0.58571401  0.75590196     0.32700
C1110       C  0.91839833  0.57485901  0.78644064     0.14400
F1111       F  0.97088610  0.58739988  0.84478362    -0.12900
F1112       F  0.91849035  0.58452347  0.72720785    -0.13400
F1113       F  0.99712875  0.60830638  0.78627600    -0.15700
F1114       F  0.89265044  0.56364526  0.78646460    -0.14300
F1115       F  0.93589659  0.60276788  0.87828490    -0.14300
F1116       F  0.87611849  0.49814060  0.88060131    -0.15700
C1117       C  0.58084466  0.92198492  0.78790791     0.14400
C1118       C  0.56813781  0.92248848  0.81776019     0.01300
C1119       C  0.54149548  0.91004013  0.81777498     0.16300
C1120       C  0.52767980  0.89783715  0.78808390     0.25700
C1121       C  0.54030948  0.89805606  0.75742279    -0.40600
C1122       C  0.56712438  0.90990571  0.75800432     0.32800
C1123       C  0.58255418  0.93764687  0.84809036     0.01400
F1124       F  0.52885652  0.91037481  0.84640292    -0.12900
F1125       F  0.58021715  0.91030595  0.72948826    -0.13500
C1126       C  0.58643459  0.96228855  0.85252345     0.16300
C1127       C  0.59867031  0.97637207  0.88197259     0.25700
C1128       C  0.60703655  0.96594347  0.90791217    -0.40600
C1129       C  0.60341079  0.94129619  0.90317787     0.32700
C1130       C  0.59140499  0.92734020  0.87335545     0.14400
F1131       F  0.57774545  0.97247513  0.82860159    -0.12900
F1132       F  0.61139439  0.93068628  0.92742864    -0.13400
F1133       F  0.58700094  0.49369145  0.89304603    -0.15700
F1134       F  0.58784739  0.90353211  0.86948504    -0.14300
F1135       F  0.60663576  0.93396457  0.78740067    -0.14300
F1136       F  0.00211509  0.88427458  0.79015153    -0.15700
C1137       C  0.52226644  0.78331140  0.65645611     0.14400
C1138       C  0.00303657  0.76205959  0.66594439     0.01300
C1139       C  0.98158747  0.76256933  0.67818646     0.16300
C1140       C  0.98114372  0.78538789  0.67897068     0.25700
C1141       C  0.00222606  0.80830374  0.66731977    -0.40600
C1142       C  0.52200100  0.80626338  0.65598556     0.32800
C1143       C  0.50146959  0.73671164  0.66944397     0.01400
F1144       F  0.96108324  0.74087499  0.68980764    -0.12900
F1145       F  0.54234217  0.82713918  0.64232597    -0.13500
C1146       C  0.51843944  0.73308979  0.68998001     0.16300
C1147       C  0.51786115  0.70970600  0.68983630     0.25700
C1148       C  0.50031308  0.68950023  0.66889521    -0.40600
C1149       C  0.98483392  0.69421709  0.64468182     0.32700
C1150       C  0.98598119  0.71781365  0.64400560     0.14400
F1151       F  0.53528025  0.75209772  0.71067592    -0.12900
F1152       F  0.96817233  0.67566012  0.62328678    -0.13400
F1153       F  0.53430050  0.70685840  0.71056372    -0.15700
F1154       F  0.97040220  0.72132913  0.62237496    -0.14300
F1155       F  0.54251072  0.78256262  0.64301308    -0.14300
F1156       F  0.95989725  0.78484899  0.69096287    -0.15700
C1157       C  0.97380016  0.50917776  0.66342569     0.14400
C1158       C  0.49668722  0.50875927  0.65824302    -0.01100
C1159       C  0.51942591  0.53166628  0.65208099     0.16300
C1160       C  0.51980949  0.55487795  0.65319239     0.25700
C1161       C  0.49739859  0.55545162  0.66012995    -0.40600
C1162       C  0.97388676  0.53224092  0.66456714     0.32800
C1163       C  0.00053883  0.98681609  0.66909469     0.01400
F1164       F  0.54139496  0.53158531  0.64596352    -0.12900
F1165       F  0.95177242  0.53197842  0.67090200    -0.13500
C1166       C  0.00632903  0.97784678  0.63914931     0.16300
C1167       C  0.00609371  0.95470515  0.63953399     0.25700
C1168       C  0.99966616  0.93994969  0.66976099    -0.40600
C1169       C  0.48922651  0.94685287  0.69464772     0.32700
C1170       C  0.48983775  0.97023699  0.69430318     0.14400
F1171       F  0.01252021  0.99171576  0.60961269    -0.12900
F1172       F  0.47804257  0.93076457  0.72162555    -0.13400
F1173       F  0.01167409  0.94644973  0.61012894    -0.15700
F1174       F  0.47890998  0.97613436  0.72048454    -0.14300
F1175       F  0.96539400  0.99419325  0.63002811    -0.14300
F1176       F  0.54200341  0.57677124  0.64709380    -0.15700
C1177       C  0.54041081  0.64220977  0.51413182     0.14400
C1178       C  0.56528924  0.64627515  0.51505913     0.01300
C1179       C  0.57730242  0.64922432  0.54694693     0.16300
C1180       C  0.56427050  0.64687830  0.57758704     0.25700
C1181       C  0.53875377  0.64137510  0.57696773    -0.40600
C1182       C  0.52721642  0.63974371  0.54478222     0.32800
C1183       C  0.57791154  0.64509472  0.48311634     0.01400
F1184       F  0.60153934  0.65367774  0.54837950    -0.12900
F1185       F  0.00264139  0.63621501  0.54342710    -0.13500
C1186       C  0.58398710  0.66304589  0.45663607     0.16300
C1187       C  0.59509307  0.66105640  0.42606800     0.25700
C1188       C  0.60032947  0.64106876  0.42157097    -0.40600
C1189       C  0.59454134  0.62336462  0.44845153     0.32700
C1190       C  0.58339924  0.62535294  0.47884471     0.14400
F1191       F  0.57918831  0.68249777  0.46043732    -0.12900
F1192       F  0.59839765  0.60329053  0.44469273    -0.13400
F1193       F  0.60074281  0.67869043  0.40090775    -0.15700
F1194       F  0.57701908  0.60735925  0.50370513    -0.14300
F1195       F  0.52843774  0.63935825  0.48352642    -0.14300
F1196       F  0.57639275  0.64880321  0.60779472    -0.15700
C1197       C  0.62184898  0.58940068  0.18085600     0.14400
C1198       C  0.64208443  0.58469208  0.17706752     0.01300
C1199       C  0.66010508  0.59156968  0.20346883     0.16300
C1200       C  0.65734221  0.60211827  0.23404892     0.25700
C1201       C  0.63645699  0.60592949  0.23857543    -0.40600
C1202       C  0.61907003  0.60002452  0.21128037     0.32800
C1203       C  0.64316504  0.57089315  0.14652947     0.01400
F1204       F  0.68002488  0.58750368  0.19987812    -0.12900
F1205       F  0.59859508  0.60323522  0.21464554    -0.13500
C1206       C  0.65503328  0.58404579  0.11625663     0.16300
C1207       C  0.65392514  0.57064167  0.08640395     0.25700
C1208       C  0.64070336  0.54370151  0.08632449    -0.40600
C1209       C  0.62960886  0.53071141  0.11738353     0.32700
C1210       C  0.63082654  0.54423773  0.14710157     0.14400
F1211       F  0.66712557  0.60988417  0.11540821    -0.12900
F1212       F  0.61669285  0.50487577  0.11889787    -0.13400
F1213       F  0.66530474  0.58414745  0.05745322    -0.15700
F1214       F  0.61917621  0.53127038  0.17628836    -0.14300
F1215       F  0.60424452  0.58280856  0.15549093    -0.14300
F1216       F  0.67500463  0.60846163  0.25926829    -0.15700
C1217       C  0.91950667  0.84223446  0.55075696     0.14400
C1218       C  0.93201992  0.84980912  0.51881840     0.01300
C1219       C  0.95844675  0.85962382  0.51776572     0.16300
C1220       C  0.97224630  0.86274940  0.54809362     0.25700
C1221       C  0.95996464  0.85627699  0.58043758    -0.40600
C1222       C  0.93325267  0.84547812  0.58119385     0.32800
C1223       C  0.91804916  0.84972446  0.48715497     0.01400
F1224       F  0.97119632  0.86744190  0.48744212    -0.12900
F1225       F  0.92032101  0.83867587  0.61144793    -0.13500
C1226       C  0.90492134  0.86331795  0.48663276     0.16300
C1227       C  0.89384478  0.86563604  0.45624913     0.25700
C1228       C  0.89578653  0.85458838  0.42522863    -0.40600
C1229       C  0.90821208  0.84017285  0.42609990     0.32700
C1230       C  0.91912453  0.83771533  0.45675857     0.14400
F1231       F  0.90391995  0.87558405  0.51527400    -0.12900
F1232       F  0.91030394  0.82881074  0.39720076    -0.13400
F1233       F  0.88218781  0.87976412  0.45715625    -0.15700
F1234       F  0.93100583  0.82379004  0.45667187    -0.14300
F1235       F  0.89389505  0.83204596  0.55256581    -0.14300
F1236       F  0.99780495  0.87283776  0.54564567    -0.15700
C1237       C  0.50951106  0.53604983  0.34101414     0.14400
C1238       C  0.50935416  0.51282514  0.33919865     0.01300
C1239       C  0.53252987  0.51312716  0.33559938     0.16300
C1240       C  0.55544990  0.53624809  0.33339755     0.25700
C1241       C  0.55560578  0.55954100  0.33456071    -0.40600
C1242       C  0.53240477  0.55919313  0.33863512     0.32800
C1243       C  0.98939944  0.98456279  0.33799270     0.01400
F1244       F  0.03231163  0.49181944  0.33661943    -0.12900
F1245       F  0.53190569  0.58127075  0.34108119    -0.13500
C1246       C  0.98279082  0.96746150  0.31037602     0.16300
C1247       C  0.95970772  0.94451696  0.31061783     0.25700
C1248       C  0.94257080  0.93851777  0.33816773    -0.40600
C1249       C  0.94924576  0.95559590  0.36583775     0.32700
C1250       C  0.97260781  0.97823541  0.36596657     0.14400
F1251       F  0.99831261  0.97333514  0.28259516    -0.12900
F1252       F  0.93336149  0.95019916  0.39309520    -0.13400
F1253       F  0.95374573  0.92863538  0.28324029    -0.15700
F1254       F  0.97894815  0.99391563  0.39362203    -0.14300
F1255       F  0.48990487  0.03202832  0.34597962    -0.14300
F1256       F  0.57743115  0.53580005  0.32938310    -0.15700
C1257       C  0.71197270  0.73944139  0.32230325     0.14400
C1258       C  0.73489744  0.73929032  0.32631944     0.01300
C1259       C  0.73420032  0.71591725  0.33000209     0.16300
C1260       C  0.71097028  0.69307141  0.33033324     0.25700
C1261       C  0.68784361  0.69309503  0.32695475    -0.40600
C1262       C  0.68865336  0.71657824  0.32251109     0.32800
C1263       C  0.75953616  0.76348420  0.32753534     0.01400
F1264       F  0.75607176  0.71524604  0.33407998    -0.12900
F1265       F  0.66689943  0.71755023  0.31915231    -0.13500
C1266       C  0.76423981  0.78142559  0.35345225     0.16300
C1267       C  0.78773820  0.80396037  0.35533984     0.25700
C1268       C  0.80708537  0.80897362  0.33133263    -0.40600
C1269       C  0.80225260  0.79090436  0.30531824     0.32700
C1270       C  0.77870491  0.76842797  0.30345608     0.14400
F1271       F  0.74625976  0.77676807  0.37758283    -0.12900
F1272       F  0.82012669  0.79511053  0.28122002    -0.13400
F1273       F  0.79172905  0.82050729  0.38129459    -0.15700
F1274       F  0.77448730  0.75157694  0.27781754    -0.14300
F1275       F  0.71220709  0.76179142  0.31802889    -0.14300
F1276       F  0.71122809  0.67090340  0.33366505    -0.15700
C1277       C  0.84769500  0.92820815  0.12793117     0.14400
C1278       C  0.85940540  0.94188136  0.15795295     0.01300
C1279       C  0.87219095  0.96859403  0.15709004     0.16300
C1280       C  0.87436225  0.98148457  0.12614053     0.25700
C1281       C  0.86366824  0.96780903  0.09537454    -0.40600
C1282       C  0.84968798  0.94094827  0.09700214     0.32800
C1283       C  0.86012910  0.92817067  0.18916784     0.01400
F1284       F  0.88367026  0.98221966  0.18587110    -0.12900
F1285       F  0.83845771  0.92680750  0.06851256    -0.13500
C1286       C  0.87397299  0.91533461  0.18866518     0.16300
C1287       C  0.87506799  0.90234183  0.21783309     0.25700
C1288       C  0.86228856  0.90190832  0.24836616    -0.40600
C1289       C  0.84813352  0.91465837  0.24856938     0.32700
C1290       C  0.84719809  0.92774611  0.21927261     0.14400
F1291       F  0.88709520  0.91601939  0.16001588    -0.12900
F1292       F  0.83522209  0.91461298  0.27710275    -0.13400
F1293       F  0.88938031  0.89091103  0.21631466    -0.15700
F1294       F  0.83355851  0.93991591  0.22022569    -0.14300
F1295       F  0.83476689  0.90235039  0.12845688    -0.14300
F1296       F  0.88782240  0.00734166  0.12622856    -0.15700
loop_ 
_geom_bond_atom_site_label_1 
_geom_bond_atom_site_label_2 
_geom_bond_distance 
_geom_bond_site_symmetry_2 
_ccdc_geom_bond_type 
O1           Ni9   1.915       .  S
O1           C11   1.281       .  A
O2           Ni9   1.914       .  S
O2           C12   1.281       .  A
O3           Ni9   1.918       .  S
O3           C13   1.282       .  A
O4           Ni9   1.924       .  S
O4           C14   1.283       .  A
O5          Ni10   1.916       .  S
O5           C14   1.281       .  A
O6          Ni10   1.919       .  S
O6           C13   1.282       .  A
O7          Ni10   1.919       .  S
O7           C12   1.282       .  A
O8          Ni10   1.918       .  S
O8           C11   1.282       .  A
Ni9         Ni10   2.385       .  S
C11         C276   1.479       .  S
C12         C296   1.482       .  S
C13         C316   1.492       .  S
C14         C256   1.486       .  S
O15         Ni23   1.914       .  S
O15          C25   1.281       .  A
O16         Ni23   1.916       .  S
O16          C26   1.281       .  A
O17         Ni23   1.918       .  S
O17          C27   1.282       .  A
O18         Ni23   1.915       .  S
O18          C28   1.281       .  A
O19         Ni24   1.924       .  S
O19          C28   1.283       .  A
O20         Ni24   1.922       .  S
O20          C27   1.282       .  A
O21         Ni24   1.911       .  S
O21          C26   1.280       .  A
O22         Ni24   1.909       .  S
O22          C25   1.279       .  A
Ni23        Ni24   2.387       .  S
C25         C269   1.470       .  S
C26         C289   1.480       .  S
C27         C229   1.486       .  S
C28         C216   1.486       .  S
O29         Ni37   1.911       .  S
O29          C39   1.280       .  A
O30         Ni37   1.913       .  S
O30          C40   1.280       .  A
O31         Ni37   1.920       .  S
O31         C689   1.282       .  A
O32         Ni37   1.919       .  S
O32          C42   1.282       .  A
O33         Ni38   1.923   1_655  S
O33         C690   1.283       .  A
O34         Ni38   1.926       .  S
O34          C41   1.283       .  A
O35         Ni38   1.914       .  S
O35         C688   1.281   1_455  A
O36         Ni38   1.911       .  S
O36         C687   1.280       .  A
Ni37       Ni686   2.385       .  S
Ni38       Ni685   2.384   1_455  S
C39         O684   1.280       .  A
C39         C196   1.470       .  S
C40         O683   1.280       .  A
C40         C169   1.478       .  S
C41         O679   1.282       .  A
C41         C149   1.493       .  S
C42         O681   1.283       .  A
C42         C249   1.492       .  S
O43         Ni51   1.918       .  S
O43          C53   1.282       .  A
O44         Ni51   1.916       .  S
O44          C54   1.282   1_455  A
O45         Ni51   1.911   1_655  S
O45         C703   1.280       .  A
O46         Ni51   1.914       .  S
O46          C56   1.280       .  A
O47         Ni52   1.923       .  S
O47         C704   1.283       .  A
O48         Ni52   1.923       .  S
O48          C55   1.282       .  A
O49         Ni52   1.910       .  S
O49         C702   1.280       .  A
O50         Ni52   1.913       .  S
O50         C701   1.281       .  A
Ni51       Ni700   2.383   1_455  S
Ni52       Ni699   2.383       .  S
C53         O698   1.281   1_455  A
C53         C189   1.488       .  S
C54         O697   1.280       .  A
C54         C176   1.483       .  S
C55         O693   1.280       .  A
C55         C136   1.484       .  S
C56         O695   1.283       .  A
C56         C209   1.487       .  S
O57         Ni65   1.919       .  S
O57          C67   1.282       .  A
O58         Ni65   1.919       .  S
O58          C68   1.281       .  A
O59         Ni65   1.917       .  S
O59         C393   1.281   1_545  A
O60         Ni65   1.915   1_556  S
O60          C70   1.281       .  A
O61         Ni66   1.916       .  S
O61         C394   1.281       .  A
O62         Ni66   1.917   1_554  S
O62          C69   1.281       .  A
O63         Ni66   1.917       .  S
O63         C392   1.282   1_556  A
O64         Ni66   1.916       .  S
O64         C391   1.281   1_556  A
Ni65       Ni390   2.381   1_544  S
Ni66       Ni389   2.383   1_556  S
C67         O388   1.280   1_544  A
C67          C96   1.488       .  S
C68         O387   1.281   1_544  A
C68         C116   1.488       .  S
C69         O383   1.283       .  A
C69         C309   1.492       .  S
C70         O385   1.282       .  A
C70         C129   1.489       .  S
O71         Ni79   1.909       .  S
O71         C405   1.280   1_554  A
O72         Ni79   1.908       .  S
O72         C406   1.279   1_554  A
O73         Ni79   1.920       .  S
O73         C407   1.283       .  A
O74         Ni79   1.925   1_556  S
O74          C84   1.282       .  A
O75         Ni80   1.916       .  S
O75         C408   1.281   1_545  A
O76         Ni80   1.915   1_554  S
O76          C83   1.281       .  A
O77         Ni80   1.922       .  S
O77          C82   1.283       .  A
O78         Ni80   1.915       .  S
O78          C81   1.282       .  A
Ni79       Ni404   2.385   1_554  S
Ni80       Ni403   2.383   1_546  S
C81         O395   1.280   1_546  A
C81          C89   1.486   1_545  S
C82         O396   1.280   1_546  A
C82         C109   1.489       .  S
C83         O397   1.283       .  A
C83         C236   1.490       .  S
C84         O399   1.281       .  A
C84         C156   1.478       .  S
C85          C90   1.399       .  A
C85         C410   1.404       .  A
C85         F751   1.358       .  S
C86         C739   1.470   1_455  S
C86          C87   1.400       .  A
C86         C409   1.399   1_564  A
C87          C88   1.399       .  A
C87          F92   1.358   1_455  S
C88          C89   1.414   1_554  A
C88         F104   1.358       .  S
C89         C414   1.412   1_565  A
C90         C413   1.409       .  A
C90          F93   1.358       .  S
C91         C734   1.483   1_554  S
C91          C98   1.405   1_565  A
C91         C418   1.404   1_554  A
C94          C95   1.398       .  A
C94         C415   1.405   1_556  A
C94          F99   1.358       .  S
C95         C420   1.407   1_556  A
C95         F101   1.358       .  S
C96          C97   1.410       .  A
C96         C419   1.413   1_544  A
C97          C98   1.397       .  A
C97         F100   1.358       .  S
C98         F750   1.358       .  S
F102        C746   1.358   1_455  S
F103        C733   1.358       .  S
C105        C110   1.396       .  A
C105        C430   1.403       .  A
C105        F123   1.358       .  S
C106        C111   1.479       .  S
C106        C107   1.404   1_554  A
C106        C429   1.402   1_545  A
C107        C108   1.401       .  A
C107        F112   1.358       .  S
C108        C109   1.413       .  A
C108        F124   1.358       .  S
C109        C434   1.413   1_546  A
C110        C433   1.412       .  A
C110        F113   1.358       .  S
C111        C118   1.403       .  A
C111        C438   1.403   1_544  A
C114        C115   1.397       .  A
C114        C435   1.405   1_556  A
C114        F119   1.358       .  S
C115        C440   1.411   1_556  A
C115        F121   1.358       .  S
C116        C117   1.413       .  A
C116        C439   1.412   1_544  A
C117        C118   1.400       .  A
C117        F120   1.358       .  S
C118        F122   1.358       .  S
C125        C126   1.403       .  A
C125        C130   1.397       .  A
C125        F143   1.358       .  S
C126        C131   1.480       .  S
C126        C127   1.403       .  A
C127        C128   1.400       .  A
C127        F132   1.358       .  S
C128        C129   1.412       .  A
C128        F144   1.358       .  S
C129        C130   1.412       .  A
C130        F133   1.358       .  S
C131        C134   1.403       .  A
C131        C138   1.405       .  A
C134        C135   1.395       .  A
C134        F139   1.358       .  S
C135        C136   1.409       .  A
C135        F141   1.358       .  S
C136        C137   1.411       .  A
C137        C138   1.403       .  A
C137        F140   1.358       .  S
C138        F142   1.358       .  S
C145        C146   1.402       .  A
C145        C150   1.402       .  A
C145        F163   1.358       .  S
C146        C151   1.480       .  S
C146        C147   1.402       .  A
C147        C148   1.402       .  A
C147        F152   1.358       .  S
C148        C149   1.413       .  A
C148        F812   1.358       .  S
C149        C150   1.413       .  A
C150        F153   1.357       .  S
C151        C154   1.403       .  A
C151        C158   1.406       .  A
C154        C155   1.397       .  A
C154        F159   1.358       .  S
C155        C156   1.407       .  A
C155        F485   1.358       .  S
C156        C157   1.407       .  A
C157        C158   1.405       .  A
C157        F160   1.358       .  S
C158        F162   1.357       .  S
F161        C479   1.358       .  S
F164        C796   1.358       .  S
C165        C170   1.396       .  A
C165        C814   1.404   1_455  A
C165        F183   1.358       .  S
C166        C819   1.478       .  S
C166        C167   1.405       .  A
C166        C813   1.405       .  A
C167        C168   1.397       .  A
C167        F172   1.358       .  S
C168        C169   1.409       .  A
C168        F184   1.358       .  S
C169        C818   1.408       .  A
C170        C817   1.409   1_455  A
C170        F173   1.358       .  S
C171        C814   1.478       .  S
C171        C174   1.404   1_655  A
C171        C826   1.403       .  A
C174        C175   1.396       .  A
C174        F179   1.358       .  S
C175        C176   1.410   1_455  A
C175        F181   1.358       .  S
C176        C825   1.412       .  A
C177        C178   1.396       .  A
C177        C824   1.411       .  A
C177        F180   1.358       .  S
C178        C819   1.404       .  A
C178        F182   1.358       .  S
C185        C190   1.398       .  A
C185        C834   1.400       .  A
C185        F527   1.358   1_545  S
C186       C1163   1.476   1_545  S
C186        C187   1.402       .  A
C186        C833   1.402   1_455  A
C187        C188   1.399       .  A
C187        F192   1.358       .  S
C188        C189   1.413       .  A
C188        F204   1.358       .  S
C189        C838   1.413   1_455  A
C190        C837   1.413       .  A
C190        F193   1.358       .  S
C191       C1158   1.475       .  S
C191        C194   1.404       .  A
C191        C846   1.405       .  A
C194        C195   1.397       .  A
C194        F199   1.358       .  S
C195        C196   1.407       .  A
C195        F201   1.358       .  S
C196        C845   1.405       .  A
C197        C198   1.395       .  A
C197        C844   1.405       .  A
C197        F200   1.358       .  S
C198        C839   1.404       .  A
C198        F202   1.358       .  S
F203        C509   1.358       .  S
C205        C206   1.406       .  A
C205        C210   1.401       .  A
C205        F223   1.358       .  S
C206        C211   1.485       .  S
C206        C207   1.404       .  A
C207        C208   1.398       .  A
C207        F212   1.358       .  S
C208        C209   1.412       .  A
C208        F224   1.358       .  S
C209        C210   1.410       .  A
C210        F861   1.358       .  S
C211        C214   1.405       .  A
C211        C218   1.406       .  A
F213        C858   1.358       .  S
C214        C215   1.401       .  A
C214        F219   1.358       .  S
C215        C216   1.411       .  A
C215        F221   1.358       .  S
C216        C217   1.409       .  A
C217        C218   1.398       .  A
C217        F220   1.358       .  S
C218        F222   1.358       .  S
C225        C226   1.404       .  A
C225        C230   1.398       .  A
C225        F243   1.358       .  S
C226        C231   1.484       .  S
C226        C227   1.405       .  A
C227        C228   1.402       .  A
C227        F232   1.358       .  S
C228        C229   1.410       .  A
C228        F244   1.358       .  S
C229        C230   1.410       .  A
C230        F233   1.358       .  S
C231        C234   1.403       .  A
C231        C238   1.405       .  A
C234        C235   1.399       .  A
C234        F239   1.358       .  S
C235        C236   1.413       .  A
C235        F241   1.358       .  S
C236        C237   1.411       .  A
C237        C238   1.401       .  A
C237        F240   1.358       .  S
C238        F242   1.358       .  S
C245        C246   1.403       .  A
C245        C250   1.400       .  A
C245        F263   1.358       .  S
C246        C251   1.484       .  S
C246        C247   1.404       .  A
C247        C248   1.401       .  A
C247        F252   1.358       .  S
C248        C249   1.412       .  A
C248        F264   1.358       .  S
C249        C250   1.413       .  A
C250        F253   1.358       .  S
C251        C254   1.404       .  A
C251        C258   1.406       .  A
C254        C255   1.398       .  A
C254        F259   1.358       .  S
C255        C256   1.410       .  A
C255        F261   1.358       .  S
C256        C257   1.410       .  A
C257        C258   1.403       .  A
C257        F260   1.358       .  S
C258        F262   1.358       .  S
C265        C266   1.407       .  A
C265        C270   1.395       .  A
C265        F607   1.358   1_455  S
C266       C1243   1.479   1_445  S
C266        C267   1.407       .  A
C267        C268   1.397       .  A
C267        F920   1.358   1_545  S
C268        C269   1.406       .  A
C268        F284   1.358       .  S
C269        C270   1.404       .  A
C270        F273   1.358       .  S
C271       C1238   1.483       .  S
C271        C274   1.405       .  A
C271        C278   1.406       .  A
F272        C915   1.358   1_565  S
C274        C275   1.398       .  A
C274        F279   1.358       .  S
C275        C276   1.408       .  A
C275        F281   1.358       .  S
C276        C277   1.408       .  A
C277        C278   1.400       .  A
C277        F280   1.358       .  S
C278        F282   1.358       .  S
F283        C589   1.358   1_655  S
C285        C286   1.405       .  A
C285        C290   1.399       .  A
C285        F303   1.358       .  S
C286        C291   1.479       .  S
C286        C287   1.404       .  A
C287        C288   1.396       .  A
C287        F292   1.358       .  S
C288        C289   1.409       .  A
C288        F304   1.358       .  S
C289        C290   1.409       .  A
C290        F293   1.358       .  S
C291        C294   1.404       .  A
C291        C298   1.404       .  A
C294        C295   1.399       .  A
C294        F299   1.358       .  S
C295        C296   1.409       .  A
C295        F301   1.358       .  S
C296        C297   1.410       .  A
C297        C298   1.397       .  A
C297        F300   1.358       .  S
C298        F302   1.358       .  S
C305        C306   1.404       .  A
C305        C310   1.400       .  A
C305        F323   1.358       .  S
C306        C311   1.486       .  S
C306        C307   1.405       .  A
C307        C308   1.400       .  A
C307        F312   1.358       .  S
C308        C309   1.412       .  A
C308        F324   1.358       .  S
C309        C310   1.413       .  A
C310        F313   1.358       .  S
C311        C314   1.405       .  A
C311        C318   1.405       .  A
C314        C315   1.398       .  A
C314        F319   1.358       .  S
C315        C316   1.412       .  A
C315        F321   1.358       .  S
C316        C317   1.413       .  A
C317        C318   1.401       .  A
C317        F320   1.358       .  S
C318        F322   1.358       .  S
O325       Ni333   1.912       .  S
O325        C335   1.280       .  A
O326       Ni333   1.916       .  S
O326        C336   1.281       .  A
O327       Ni333   1.924       .  S
O327        C337   1.284       .  A
O328       Ni333   1.931       .  S
O328        C338   1.284       .  A
O329       Ni334   1.913       .  S
O329        C338   1.281       .  A
O330       Ni334   1.914       .  S
O330        C337   1.280       .  A
O331       Ni334   1.919       .  S
O331        C336   1.282       .  A
O332       Ni334   1.915       .  S
O332        C335   1.282       .  A
Ni333      Ni334   2.383       .  S
C335        C600   1.476       .  S
C336        C620   1.485       .  S
C337        C640   1.490       .  S
C338        C580   1.495       .  S
O339       Ni347   1.922       .  S
O339        C349   1.283       .  A
O340       Ni347   1.924       .  S
O340        C350   1.283       .  A
O341       Ni347   1.917       .  S
O341        C351   1.281       .  A
O342       Ni347   1.914       .  S
O342        C352   1.280       .  A
O343       Ni348   1.917       .  S
O343        C352   1.282       .  A
O344       Ni348   1.916       .  S
O344        C351   1.281       .  A
O345       Ni348   1.910       .  S
O345        C350   1.280       .  A
O346       Ni348   1.911       .  S
O346        C349   1.280       .  A
Ni347      Ni348   2.386       .  S
C349        C593   1.480       .  S
C350        C613   1.485       .  S
C351        C553   1.480       .  S
C352        C540   1.479       .  S
O353       Ni361   1.919       .  S
O353        C363   1.282       .  A
O354       Ni361   1.921       .  S
O354        C364   1.283       .  A
O355       Ni361   1.920       .  S
O355       C1013   1.282       .  A
O356       Ni361   1.923       .  S
O356        C366   1.282       .  A
O357       Ni362   1.925   1_655  S
O357       C1014   1.283       .  A
O358       Ni362   1.927       .  S
O358        C365   1.284       .  A
O359       Ni362   1.915       .  S
O359       C1012   1.281       .  A
O360       Ni362   1.912       .  S
O360       C1011   1.280   1_455  A
Ni361     Ni1010   2.381       .  S
Ni362     Ni1009   2.382   1_455  S
C363       O1008   1.280       .  A
C363        C520   1.480       .  S
C364       O1007   1.281       .  A
C364        C493   1.491       .  S
C365       O1003   1.281       .  A
C365        C473   1.494       .  S
C366       O1005   1.283       .  A
C366        C573   1.498       .  S
O367       Ni375   1.915       .  S
O367        C377   1.281   1_455  A
O368       Ni375   1.919       .  S
O368        C378   1.282   1_455  A
O369       Ni375   1.917   1_655  S
O369       C1027   1.282       .  A
O370       Ni375   1.911       .  S
O370        C380   1.280       .  A
O371       Ni376   1.925       .  S
O371       C1028   1.283       .  A
O372       Ni376   1.925       .  S
O372        C379   1.283       .  A
O373       Ni376   1.913       .  S
O373       C1026   1.281       .  A
O374       Ni376   1.910       .  S
O374       C1025   1.279       .  A
Ni375     Ni1024   2.384   1_455  S
Ni376     Ni1023   2.384       .  S
C377       O1022   1.279       .  A
C377        C513   1.470       .  S
C378       O1021   1.281       .  A
C378        C500   1.488   1_655  S
C379       O1017   1.281       .  A
C379        C460   1.492       .  S
C380       O1019   1.283   1_455  A
C380        C533   1.486       .  S
O381       Ni389   1.911       .  S
O381        C391   1.280       .  A
O382       Ni389   1.915       .  S
O382        C392   1.281       .  A
O383       Ni389   1.921       .  S
O384       Ni389   1.925   1_556  S
O384        C394   1.283       .  A
O385       Ni390   1.919   1_545  S
O386       Ni390   1.919   1_554  S
O386        C393   1.282       .  A
O387       Ni390   1.911       .  S
O388       Ni390   1.914       .  S
C391        C420   1.474       .  S
C392        C440   1.488       .  S
C393        C633   1.491       .  S
C394        C453   1.493       .  S
O395       Ni403   1.912       .  S
O396       Ni403   1.909       .  S
O397       Ni403   1.924   1_545  S
O398       Ni403   1.926   1_556  S
O398        C408   1.282       .  A
O399       Ni404   1.915       .  S
O400       Ni404   1.914   1_554  S
O400        C407   1.280       .  A
O401       Ni404   1.927       .  S
O401        C406   1.284       .  A
O402       Ni404   1.921       .  S
O402        C405   1.283       .  A
C405        C413   1.481       .  S
C406        C433   1.488   1_556  S
C407        C560   1.489       .  S
C408        C480   1.482       .  S
C409        C414   1.396       .  A
C409       F1075   1.358       .  S
C410       C1063   1.476   1_456  S
C410        C411   1.402   1_556  A
C411        C412   1.397       .  A
C411        F416   1.358       .  S
C412        C413   1.411   1_554  A
C412        F428   1.358       .  S
C414        F417   1.358       .  S
C415       C1058   1.477   1_554  S
C415        C422   1.404       .  A
C418        C419   1.400       .  A
C418        F423   1.358       .  S
C419        F425   1.358       .  S
C420        C421   1.407       .  A
C421        C422   1.396       .  A
C421        F424   1.358       .  S
C422       F1074   1.358       .  S
F426       C1070   1.358       .  S
F427       C1057   1.358       .  S
C429        C434   1.394       .  A
C429        F447   1.358       .  S
C430        C435   1.483       .  S
C430        C431   1.406   1_554  A
C431        C432   1.402       .  A
C431        F436   1.358       .  S
C432        C433   1.411   1_556  A
C432        F448   1.358       .  S
C434        F437   1.358       .  S
C435        C442   1.405       .  A
C438        C439   1.395       .  A
C438        F443   1.358       .  S
C439        F445   1.358       .  S
C440        C441   1.413       .  A
C441        C442   1.400       .  A
C441        F444   1.358       .  S
C442        F446   1.358       .  S
C449        C450   1.404       .  A
C449        C454   1.401       .  A
C449        F467   1.358       .  S
C450        C455   1.484       .  S
C450        C451   1.403       .  A
C451        C452   1.400       .  A
C451        F456   1.358       .  S
C452        C453   1.414       .  A
C452        F468   1.358       .  S
C453        C454   1.413       .  A
C454        F457   1.358       .  S
C455        C458   1.403       .  A
C455        C462   1.404       .  A
C458        C459   1.398       .  A
C458        F463   1.358       .  S
C459        C460   1.413       .  A
C459        F465   1.358       .  S
C460        C461   1.413       .  A
C461        C462   1.403       .  A
C461        F464   1.358       .  S
C462        F466   1.358       .  S
C469        C470   1.403       .  A
C469        C474   1.404       .  A
C469        F487   1.358       .  S
C470        C475   1.481       .  S
C470        C471   1.402       .  A
C471        C472   1.399       .  A
C471        F476   1.358       .  S
C472        C473   1.414       .  A
C472       F1136   1.358       .  S
C473        C474   1.413       .  A
C474        F477   1.357       .  S
C475        C478   1.403       .  A
C475        C482   1.405       .  A
C478        C479   1.397       .  A
C478        F483   1.358       .  S
C479        C480   1.408       .  A
C480        C481   1.408       .  A
C481        C482   1.405       .  A
C481        F484   1.357       .  S
C482        F486   1.357       .  S
F488       C1120   1.358       .  S
C489       C1138   1.403       .  A
C489        C494   1.401       .  A
C489        F507   1.358       .  S
C490       C1143   1.479       .  S
C490       C1137   1.402       .  A
C490        C491   1.402       .  A
C491        C492   1.399       .  A
C491        F496   1.358       .  S
C492        C493   1.412       .  A
C492        F508   1.357       .  S
C493       C1142   1.414       .  A
C494       C1141   1.414       .  A
C494        F497   1.358       .  S
C495       C1138   1.479       .  S
C495        C498   1.403       .  A
C495       C1150   1.402   1_455  A
C498        C499   1.400       .  A
C498        F503   1.358       .  S
C499        C500   1.412       .  A
C499        F505   1.358       .  S
C500       C1149   1.412   1_455  A
C501       C1148   1.413       .  A
C501        C502   1.397       .  A
C501        F504   1.358       .  S
C502       C1143   1.402       .  A
C502        F506   1.358       .  S
C509       C1158   1.405       .  A
C509        C514   1.396       .  A
C510        C839   1.475       .  S
C510       C1157   1.405       .  A
C510        C511   1.404   1_655  A
C511        C512   1.396       .  A
C511        F516   1.358       .  S
C512        C513   1.406   1_455  A
C512        F528   1.358       .  S
C513       C1162   1.406       .  A
C514       C1161   1.406       .  A
C514        F517   1.358       .  S
C515        C834   1.472   1_565  S
C515        C518   1.400       .  A
C515       C1170   1.402       .  A
C518        C519   1.397       .  A
C518        F523   1.358       .  S
C519        C520   1.410       .  A
C519        F525   1.358       .  S
C520       C1169   1.410       .  A
C521       C1168   1.407       .  A
C521        C522   1.401       .  A
C521        F524   1.358       .  S
C522       C1163   1.405   1_655  A
C522        F526   1.358       .  S
C529        C530   1.404       .  A
C529        C534   1.401       .  A
C529        F547   1.358       .  S
C530        C535   1.479       .  S
C530        C531   1.402       .  A
C531        C532   1.397       .  A
C531        F536   1.358       .  S
C532        C533   1.412       .  A
C532        F548   1.358       .  S
C533        C534   1.411       .  A
C534       F1185   1.358       .  S
C535        C538   1.404       .  A
C535        C542   1.404       .  A
F537       C1182   1.358       .  S
C538        C539   1.401       .  A
C538        F543   1.358       .  S
C539        C540   1.409       .  A
C539        F545   1.358       .  S
C540        C541   1.408       .  A
C541        C542   1.396       .  A
C541        F544   1.358       .  S
C542        F546   1.358       .  S
C549        C550   1.402       .  A
C549        C554   1.398       .  A
C549        F567   1.358       .  S
C550        C555   1.473       .  S
C550        C551   1.402       .  A
C551        C552   1.400       .  A
C551        F556   1.358       .  S
C552        C553   1.409       .  A
C552        F568   1.358       .  S
C553        C554   1.409       .  A
C554        F557   1.358       .  S
C555        C558   1.400       .  A
C555        C562   1.401       .  A
C558        C559   1.400       .  A
C558        F563   1.358       .  S
C559        C560   1.415       .  A
C559        F565   1.358       .  S
C560        C561   1.412       .  A
C561        C562   1.398       .  A
C561        F564   1.358       .  S
C562        F566   1.358       .  S
C569        C570   1.406       .  A
C569        C574   1.402       .  A
C569        F587   1.358       .  S
C570        C575   1.492       .  S
C570        C571   1.406       .  A
C571        C572   1.403       .  A
C571        F576   1.358       .  S
C572        C573   1.413       .  A
C572        F588   1.357       .  S
C573        C574   1.414       .  A
C574        F577   1.358       .  S
C575        C578   1.405       .  A
C575        C582   1.408       .  A
C578        C579   1.398       .  A
C578        F583   1.358       .  S
C579        C580   1.413       .  A
C579        F585   1.358       .  S
C580        C581   1.412       .  A
C581        C582   1.405       .  A
C581        F584   1.358       .  S
C582        F586   1.358       .  S
C589        C590   1.404       .  A
C589        C594   1.399       .  A
C590        C919   1.479   1_455  S
C590        C591   1.404       .  A
C591        C592   1.398       .  A
C591       F1244   1.358       .  S
C592        C593   1.409       .  A
C592        F608   1.358       .  S
C593        C594   1.409       .  A
C594        F597   1.358       .  S
C595        C914   1.484   1_565  S
C595        C598   1.407       .  A
C595        C602   1.407       .  A
F596       C1239   1.358       .  S
C598        C599   1.398       .  A
C598        F603   1.358       .  S
C599        C600   1.408       .  A
C599        F605   1.358       .  S
C600        C601   1.406       .  A
C601        C602   1.396       .  A
C601        F604   1.358       .  S
C602        F606   1.358       .  S
C609        C610   1.405       .  A
C609        C614   1.401       .  A
C609        F627   1.358       .  S
C610        C615   1.481       .  S
C610        C611   1.403       .  A
C611        C612   1.397       .  A
C611        F616   1.358       .  S
C612        C613   1.411       .  A
C612        F628   1.358       .  S
C613        C614   1.410       .  A
C614        F617   1.358       .  S
C615        C618   1.404       .  A
C615        C622   1.404       .  A
C618        C619   1.399       .  A
C618        F623   1.358       .  S
C619        C620   1.410       .  A
C619        F625   1.358       .  S
C620        C621   1.411       .  A
C621        C622   1.399       .  A
C621        F624   1.358       .  S
C622        F626   1.358       .  S
C629        C630   1.402       .  A
C629        C634   1.397       .  A
C629        F647   1.358       .  S
C630        C635   1.480       .  S
C630        C631   1.404       .  A
C631        C632   1.401       .  A
C631        F636   1.358       .  S
C632        C633   1.414       .  A
C632        F648   1.358   1_565  S
C633        C634   1.412       .  A
C634        F637   1.357       .  S
C635        C638   1.403       .  A
C635        C642   1.402       .  A
C638        C639   1.398       .  A
C638        F643   1.358       .  S
C639        C640   1.411       .  A
C639        F645   1.358       .  S
C640        C641   1.414       .  A
C641        C642   1.402       .  A
C641        F644   1.358       .  S
C642        F646   1.358       .  S
O649       Ni657   1.914       .  S
O649        C659   1.281       .  A
O650       Ni657   1.913       .  S
O650        C660   1.281       .  A
O651       Ni657   1.918       .  S
O651        C661   1.282       .  A
O652       Ni657   1.923       .  S
O652        C662   1.282       .  A
O653       Ni658   1.918       .  S
O653        C662   1.282       .  A
O654       Ni658   1.921       .  S
O654        C661   1.282       .  A
O655       Ni658   1.917       .  S
O655        C660   1.281       .  A
O656       Ni658   1.916       .  S
O656        C659   1.281       .  A
Ni657      Ni658   2.384       .  S
C659        C924   1.477       .  S
C660        C944   1.482       .  S
C661        C964   1.492       .  S
C662        C904   1.487       .  S
O663       Ni671   1.914       .  S
O663        C673   1.281       .  A
O664       Ni671   1.916       .  S
O664        C674   1.281       .  A
O665       Ni671   1.918       .  S
O665        C675   1.282       .  A
O666       Ni671   1.915       .  S
O666        C676   1.281       .  A
O667       Ni672   1.925       .  S
O667        C676   1.284       .  A
O668       Ni672   1.922       .  S
O668        C675   1.282       .  A
O669       Ni672   1.912       .  S
O669        C674   1.281       .  A
O670       Ni672   1.911       .  S
O670        C673   1.280       .  A
Ni671      Ni672   2.386       .  S
C673        C917   1.470       .  S
C674        C937   1.481       .  S
C675        C877   1.486       .  S
C676        C864   1.487       .  S
O677       Ni685   1.910       .  S
O677        C687   1.280   1_655  A
O678       Ni685   1.912       .  S
O678        C688   1.280       .  A
O679       Ni685   1.920   1_455  S
O680       Ni685   1.919       .  S
O680        C690   1.282       .  A
O681       Ni686   1.922       .  S
O682       Ni686   1.925       .  S
O682        C689   1.283       .  A
O683       Ni686   1.912       .  S
O684       Ni686   1.909       .  S
C687        C844   1.471   1_455  S
C688        C817   1.480       .  S
C689        C797   1.491       .  S
C690        C897   1.492       .  S
O691       Ni699   1.916       .  S
O691        C701   1.282       .  A
O692       Ni699   1.915       .  S
O692        C702   1.281       .  A
O693       Ni699   1.911       .  S
O694       Ni699   1.913       .  S
O694        C704   1.280       .  A
O695       Ni700   1.923   1_455  S
O696       Ni700   1.923       .  S
O696        C703   1.282       .  A
O697       Ni700   1.911       .  S
O698       Ni700   1.912       .  S
C701        C837   1.487       .  S
C702        C824   1.482       .  S
C703        C784   1.486       .  S
C704        C857   1.489       .  S
O705       Ni713   1.920       .  S
O705        C715   1.282       .  A
O706       Ni713   1.920       .  S
O706        C716   1.282       .  A
O707       Ni713   1.916       .  S
O707       C1041   1.281   1_545  A
O708       Ni713   1.915   1_556  S
O708        C718   1.281       .  A
O709       Ni714   1.914       .  S
O709       C1042   1.281       .  A
O710       Ni714   1.917   1_554  S
O710        C717   1.281       .  A
O711       Ni714   1.920       .  S
O711       C1040   1.283   1_556  A
O712       Ni714   1.920       .  S
O712       C1039   1.282   1_556  A
Ni713     Ni1038   2.382   1_544  S
Ni714     Ni1037   2.382   1_556  S
C715       O1036   1.280   1_544  A
C715        C744   1.479       .  S
C716       O1035   1.280   1_544  A
C716        C764   1.488       .  S
C717       O1031   1.283       .  A
C717        C957   1.493       .  S
C718       O1033   1.282       .  A
C718        C777   1.490       .  S
O719       Ni727   1.907       .  S
O719       C1053   1.279   1_554  A
O720       Ni727   1.906       .  S
O720       C1054   1.279   1_554  A
O721       Ni727   1.921       .  S
O721       C1055   1.283       .  A
O722       Ni727   1.924   1_556  S
O722        C732   1.282       .  A
O723       Ni728   1.919       .  S
O723       C1056   1.282   1_545  A
O724       Ni728   1.918   1_554  S
O724        C731   1.282       .  A
O725       Ni728   1.921       .  S
O725        C730   1.282       .  A
O726       Ni728   1.915       .  S
O726        C729   1.281       .  A
Ni727     Ni1052   2.385   1_554  S
Ni728     Ni1051   2.382   1_546  S
C729       O1043   1.281   1_546  A
C729        C737   1.485       .  S
C730       O1044   1.281   1_546  A
C730        C757   1.490       .  S
C731       O1045   1.283       .  A
C731        C884   1.492       .  S
C732       O1047   1.281       .  A
C732        C804   1.477       .  S
C733       C1058   1.405       .  A
C733        C738   1.398       .  A
C734       C1057   1.405   1_565  A
C734        C735   1.405   1_556  A
C735        C736   1.400       .  A
C735        F740   1.358       .  S
C736        C737   1.411   1_564  A
C736        F752   1.358       .  S
C737       C1062   1.410       .  A
C738       C1061   1.408       .  A
C738        F741   1.358       .  S
C739       C1066   1.401   1_554  A
C739        C746   1.401   1_565  A
C742       C1063   1.404   1_556  A
C742        C743   1.399       .  A
C742        F747   1.358       .  S
C743       C1068   1.408   1_556  A
C743        F749   1.358       .  S
C744       C1067   1.410   1_544  A
C744        C745   1.409       .  A
C745        C746   1.398       .  A
C745        F748   1.358       .  S
C753       C1078   1.403       .  A
C753        C758   1.396       .  A
C753        F771   1.358       .  S
C754        C759   1.480       .  S
C754       C1077   1.402   1_546  A
C754        C755   1.404       .  A
C755        C756   1.401       .  A
C755        F760   1.358       .  S
C756        C757   1.413       .  A
C756        F772   1.358       .  S
C757       C1082   1.413   1_546  A
C758       C1081   1.412       .  A
C758        F761   1.358       .  S
C759       C1086   1.403   1_545  A
C759        C766   1.404   1_556  A
C762       C1083   1.404   1_556  A
C762        C763   1.397       .  A
C762        F767   1.358       .  S
C763       C1088   1.410   1_556  A
C763        F769   1.358       .  S
C764       C1087   1.412   1_544  A
C764        C765   1.412       .  A
C765        C766   1.400       .  A
C765        F768   1.358       .  S
C766        F770   1.358       .  S
C773        C774   1.403       .  A
C773        C778   1.397       .  A
C773        F791   1.358       .  S
C774        C779   1.480       .  S
C774        C775   1.403       .  A
C775        C776   1.400       .  A
C775        F780   1.358       .  S
C776        C777   1.413       .  A
C776        F792   1.358       .  S
C777        C778   1.413       .  A
C778        F781   1.358       .  S
C779        C782   1.403       .  A
C779        C786   1.404       .  A
C782        C783   1.395       .  A
C782        F787   1.358       .  S
C783        C784   1.411       .  A
C783        F789   1.358       .  S
C784        C785   1.412       .  A
C785        C786   1.402       .  A
C785        F788   1.358       .  S
C786        F790   1.358       .  S
C793        C794   1.402       .  A
C793        C798   1.401       .  A
C793        F811   1.358       .  S
C794        C799   1.480       .  S
C794        C795   1.403       .  A
C795        C796   1.402       .  A
C795        F800   1.358       .  S
C796        C797   1.412       .  A
C797        C798   1.412       .  A
C798        F801   1.357       .  S
C799        C802   1.403       .  A
C799        C806   1.405       .  A
C802        C803   1.398       .  A
C802        F807   1.358       .  S
C803        C804   1.407       .  A
C803       F1133   1.358       .  S
C804        C805   1.406       .  A
C805        C806   1.404       .  A
C805        F808   1.358       .  S
C806        F810   1.357       .  S
F809       C1127   1.358       .  S
C813        C818   1.396       .  A
C813        F831   1.358       .  S
C814        C815   1.404       .  A
C815        C816   1.397       .  A
C815        F820   1.358       .  S
C816        C817   1.410       .  A
C816        F832   1.358       .  S
C818        F821   1.358       .  S
C819        C822   1.404       .  A
C822        C823   1.397       .  A
C822        F827   1.358       .  S
C823        C824   1.410       .  A
C823        F829   1.358       .  S
C825        C826   1.397       .  A
C825        F828   1.358       .  S
C826        F830   1.358       .  S
C833        C838   1.397       .  A
C833       F1175   1.358   1_545  S
C834        C835   1.400       .  A
C835        C836   1.398       .  A
C835        F840   1.358       .  S
C836        C837   1.413       .  A
C836        F852   1.358       .  S
C838        F841   1.358       .  S
C839        C842   1.404   1_655  A
C842        C843   1.397       .  A
C842        F847   1.358       .  S
C843        C844   1.407   1_455  A
C843        F849   1.358       .  S
C845        C846   1.395       .  A
C845        F848   1.358       .  S
C846        F850   1.358       .  S
F851       C1157   1.358       .  S
C853        C854   1.406       .  A
C853        C858   1.401       .  A
C853        F871   1.358       .  S
C854        C859   1.484       .  S
C854        C855   1.404       .  A
C855        C856   1.398       .  A
C855        F860   1.358       .  S
C856        C857   1.412       .  A
C856        F872   1.358       .  S
C857        C858   1.411       .  A
C859        C862   1.404       .  A
C859        C866   1.406       .  A
C862        C863   1.402       .  A
C862        F867   1.358       .  S
C863        C864   1.412       .  A
C863        F869   1.358       .  S
C864        C865   1.409       .  A
C865        C866   1.398       .  A
C865        F868   1.358       .  S
C866        F870   1.358       .  S
C873        C874   1.404       .  A
C873        C878   1.399       .  A
C873        F891   1.358       .  S
C874        C879   1.485       .  S
C874        C875   1.405       .  A
C875        C876   1.403       .  A
C875        F880   1.358       .  S
C876        C877   1.410       .  A
C876        F892   1.358       .  S
C877        C878   1.410       .  A
C878        F881   1.358       .  S
C879        C882   1.403       .  A
C879        C886   1.405       .  A
C882        C883   1.400       .  A
C882        F887   1.358       .  S
C883        C884   1.413       .  A
C883        F889   1.358       .  S
C884        C885   1.412       .  A
C885        C886   1.402       .  A
C885        F888   1.358       .  S
C886        F890   1.358       .  S
C893        C894   1.403       .  A
C893        C898   1.400       .  A
C893        F911   1.358       .  S
C894        C899   1.485       .  S
C894        C895   1.405       .  A
C895        C896   1.402       .  A
C895        F900   1.358       .  S
C896        C897   1.412       .  A
C896        F912   1.358       .  S
C897        C898   1.413       .  A
C898        F901   1.358       .  S
C899        C902   1.404       .  A
C899        C906   1.405       .  A
C902        C903   1.398       .  A
C902        F907   1.358       .  S
C903        C904   1.410       .  A
C903        F909   1.358       .  S
C904        C905   1.410       .  A
C905        C906   1.403       .  A
C905        F908   1.358       .  S
C906        F910   1.358       .  S
C913        C914   1.408       .  A
C913        C918   1.396       .  A
C913       F1255   1.358       .  S
C914        C915   1.408       .  A
C915        C916   1.398       .  A
C916        C917   1.405       .  A
C916        F932   1.358       .  S
C917        C918   1.403       .  A
C918        F921   1.358       .  S
C919        C922   1.404       .  A
C919        C926   1.405       .  A
C922        C923   1.397       .  A
C922        F927   1.358       .  S
C923        C924   1.407       .  A
C923        F929   1.358       .  S
C924        C925   1.408       .  A
C925        C926   1.399       .  A
C925        F928   1.358       .  S
C926        F930   1.358       .  S
F931       C1237   1.358       .  S
C933        C934   1.404       .  A
C933        C938   1.398       .  A
C933        F951   1.358       .  S
C934        C939   1.479       .  S
C934        C935   1.404       .  A
C935        C936   1.397       .  A
C935        F940   1.358       .  S
C936        C937   1.409       .  A
C936        F952   1.358       .  S
C937        C938   1.409       .  A
C938        F941   1.358       .  S
C939        C942   1.404       .  A
C939        C946   1.404       .  A
C942        C943   1.398       .  A
C942        F947   1.358       .  S
C943        C944   1.409       .  A
C943        F949   1.358       .  S
C944        C945   1.410       .  A
C945        C946   1.397       .  A
C945        F948   1.358       .  S
C946        F950   1.358       .  S
C953        C954   1.405       .  A
C953        C958   1.400       .  A
C953        F971   1.358       .  S
C954        C959   1.487       .  S
C954        C955   1.406       .  A
C955        C956   1.400       .  A
C955        F960   1.358       .  S
C956        C957   1.412       .  A
C956        F972   1.358       .  S
C957        C958   1.413       .  A
C958        F961   1.358       .  S
C959        C962   1.405       .  A
C959        C966   1.405       .  A
C962        C963   1.399       .  A
C962        F967   1.358       .  S
C963        C964   1.412       .  A
C963        F969   1.358       .  S
C964        C965   1.413       .  A
C965        C966   1.401       .  A
C965        F968   1.358       .  S
C966        F970   1.358       .  S
O973       Ni981   1.908       .  S
O973        C983   1.279       .  A
O974       Ni981   1.914       .  S
O974        C984   1.281       .  A
O975       Ni981   1.925       .  S
O975        C985   1.284       .  A
O976       Ni981   1.931       .  S
O976        C986   1.285       .  A
O977       Ni982   1.913       .  S
O977        C986   1.281       .  A
O978       Ni982   1.915       .  S
O978        C985   1.280       .  A
O979       Ni982   1.920       .  S
O979        C984   1.282       .  A
O980       Ni982   1.916       .  S
O980        C983   1.282       .  A
Ni981      Ni982   2.383       .  S
C983       C1248   1.474       .  S
C984       C1268   1.485       .  S
C985       C1288   1.492       .  S
C986       C1228   1.496       .  S
O987       Ni995   1.923       .  S
O987        C997   1.283       .  A
O988       Ni995   1.924       .  S
O988        C998   1.283       .  A
O989       Ni995   1.916       .  S
O989        C999   1.281       .  A
O990       Ni995   1.914       .  S
O990       C1000   1.280       .  A
O991       Ni996   1.919       .  S
O991       C1000   1.282       .  A
O992       Ni996   1.917       .  S
O992        C999   1.282       .  A
O993       Ni996   1.913       .  S
O993        C998   1.281       .  A
O994       Ni996   1.913       .  S
O994        C997   1.280       .  A
Ni995      Ni996   2.386       .  S
C997       C1241   1.481       .  S
C998       C1261   1.486       .  S
C999       C1201   1.481       .  S
C1000      C1188   1.481       .  S
O1001     Ni1009   1.921       .  S
O1001      C1011   1.281       .  A
O1002     Ni1009   1.921       .  S
O1002      C1012   1.283   1_655  A
O1003     Ni1009   1.917   1_455  S
O1004     Ni1009   1.922       .  S
O1004      C1014   1.282       .  A
O1005     Ni1010   1.926       .  S
O1006     Ni1010   1.927       .  S
O1006      C1013   1.283       .  A
O1007     Ni1010   1.916       .  S
O1008     Ni1010   1.912       .  S
C1011      C1168   1.474       .  S
C1012      C1141   1.490       .  S
C1013      C1121   1.495       .  S
C1014      C1221   1.497       .  S
O1015     Ni1023   1.917       .  S
O1015      C1025   1.281       .  A
O1016     Ni1023   1.920       .  S
O1016      C1026   1.282       .  A
O1017     Ni1023   1.916       .  S
O1018     Ni1023   1.911       .  S
O1018      C1028   1.280       .  A
O1019     Ni1024   1.923       .  S
O1020     Ni1024   1.924       .  S
O1020      C1027   1.283       .  A
O1021     Ni1024   1.914       .  S
O1022     Ni1024   1.911       .  S
C1025      C1161   1.470       .  S
C1026      C1148   1.489       .  S
C1027      C1108   1.493       .  S
C1028      C1181   1.488       .  S
O1029     Ni1037   1.911       .  S
O1029      C1039   1.280       .  A
O1030     Ni1037   1.914       .  S
O1030      C1040   1.280       .  A
O1031     Ni1037   1.923       .  S
O1032     Ni1037   1.925   1_556  S
O1032      C1042   1.283       .  A
O1033     Ni1038   1.920   1_545  S
O1034     Ni1038   1.922   1_554  S
O1034      C1041   1.283       .  A
O1035     Ni1038   1.909       .  S
O1036     Ni1038   1.911       .  S
C1039      C1068   1.479       .  S
C1040      C1088   1.489       .  S
C1041      C1281   1.492       .  S
C1042      C1101   1.493       .  S
O1043     Ni1051   1.915       .  S
O1044     Ni1051   1.914       .  S
O1045     Ni1051   1.925   1_545  S
O1046     Ni1051   1.926   1_556  S
O1046      C1056   1.283       .  A
O1047     Ni1052   1.916       .  S
O1048     Ni1052   1.915   1_554  S
O1048      C1055   1.281       .  A
O1049     Ni1052   1.927       .  S
O1049      C1054   1.284       .  A
O1050     Ni1052   1.920       .  S
O1050      C1053   1.282       .  A
C1053      C1061   1.479       .  S
C1054      C1081   1.488   1_556  S
C1055      C1208   1.490       .  S
C1056      C1128   1.487       .  S
C1057      C1062   1.396       .  A
C1058      C1059   1.403   1_556  A
C1059      C1060   1.396       .  A
C1059      F1064   1.358       .  S
C1060      C1061   1.410   1_554  A
C1060      F1076   1.358       .  S
C1062      F1065   1.358       .  S
C1063      C1070   1.403       .  A
C1066      C1067   1.398       .  A
C1066      F1071   1.358       .  S
C1067      F1073   1.358       .  S
C1068      C1069   1.409       .  A
C1069      C1070   1.397       .  A
C1069      F1072   1.358       .  S
C1077      C1082   1.396       .  A
C1077      F1095   1.358       .  S
C1078      C1083   1.483       .  S
C1078      C1079   1.406   1_554  A
C1079      C1080   1.402       .  A
C1079      F1084   1.358       .  S
C1080      C1081   1.411   1_556  A
C1080      F1096   1.358       .  S
C1082      F1085   1.357       .  S
C1083      C1090   1.404       .  A
C1086      C1087   1.396       .  A
C1086      F1091   1.358       .  S
C1087      F1093   1.358       .  S
C1088      C1089   1.413       .  A
C1089      C1090   1.400       .  A
C1089      F1092   1.358       .  S
C1090      F1094   1.358       .  S
C1097      C1098   1.404       .  A
C1097      C1102   1.401       .  A
C1097      F1115   1.358       .  S
C1098      C1103   1.483       .  S
C1098      C1099   1.403       .  A
C1099      C1100   1.399       .  A
C1099      F1104   1.358       .  S
C1100      C1101   1.414       .  A
C1100      F1116   1.358       .  S
C1101      C1102   1.412       .  A
C1102      F1105   1.358       .  S
C1103      C1106   1.403       .  A
C1103      C1110   1.404       .  A
C1106      C1107   1.398       .  A
C1106      F1111   1.358       .  S
C1107      C1108   1.413       .  A
C1107      F1113   1.358       .  S
C1108      C1109   1.413       .  A
C1109      C1110   1.402       .  A
C1109      F1112   1.357       .  S
C1110      F1114   1.358       .  S
C1117      C1118   1.403       .  A
C1117      C1122   1.404       .  A
C1117      F1135   1.358       .  S
C1118      C1123   1.482       .  S
C1118      C1119   1.402       .  A
C1119      C1120   1.401       .  A
C1119      F1124   1.358       .  S
C1120      C1121   1.414       .  A
C1121      C1122   1.413       .  A
C1122      F1125   1.357       .  S
C1123      C1126   1.402       .  A
C1123      C1130   1.405       .  A
C1126      C1127   1.399       .  A
C1126      F1131   1.358       .  S
C1127      C1128   1.410       .  A
C1128      C1129   1.410       .  A
C1129      C1130   1.405       .  A
C1129      F1132   1.358       .  S
C1130      F1134   1.357       .  S
C1137      C1142   1.400       .  A
C1137      F1155   1.358       .  S
C1138      C1139   1.402   1_455  A
C1139      C1140   1.398       .  A
C1139      F1144   1.358       .  S
C1140      C1141   1.412   1_655  A
C1140      F1156   1.357       .  S
C1142      F1145   1.358       .  S
C1143      C1146   1.403       .  A
C1146      C1147   1.401       .  A
C1146      F1151   1.358       .  S
C1147      C1148   1.412       .  A
C1147      F1153   1.358       .  S
C1149      C1150   1.397       .  A
C1149      F1152   1.358       .  S
C1150      F1154   1.358       .  S
C1157      C1162   1.397       .  A
C1158      C1159   1.405       .  A
C1159      C1160   1.397       .  A
C1159      F1164   1.358       .  S
C1160      C1161   1.405       .  A
C1160      F1176   1.358       .  S
C1162      F1165   1.358       .  S
C1163      C1166   1.403       .  A
C1166      C1167   1.396       .  A
C1166      F1171   1.358       .  S
C1167      C1168   1.406   1_455  A
C1167      F1173   1.358       .  S
C1169      C1170   1.400       .  A
C1169      F1172   1.358       .  S
C1170      F1174   1.358       .  S
C1177      C1178   1.404       .  A
C1177      C1182   1.401       .  A
C1177      F1195   1.358       .  S
C1178      C1183   1.480       .  S
C1178      C1179   1.402       .  A
C1179      C1180   1.397       .  A
C1179      F1184   1.358       .  S
C1180      C1181   1.413       .  A
C1180      F1196   1.358       .  S
C1181      C1182   1.411       .  A
C1183      C1186   1.404       .  A
C1183      C1190   1.404       .  A
C1186      C1187   1.401       .  A
C1186      F1191   1.358       .  S
C1187      C1188   1.410       .  A
C1187      F1193   1.358       .  S
C1188      C1189   1.408       .  A
C1189      C1190   1.397       .  A
C1189      F1192   1.358       .  S
C1190      F1194   1.358       .  S
C1197      C1198   1.402       .  A
C1197      C1202   1.398       .  A
C1197      F1215   1.358       .  S
C1198      C1203   1.474       .  S
C1198      C1199   1.402       .  A
C1199      C1200   1.400       .  A
C1199      F1204   1.358       .  S
C1200      C1201   1.410       .  A
C1200      F1216   1.358       .  S
C1201      C1202   1.410       .  A
C1202      F1205   1.358       .  S
C1203      C1206   1.400       .  A
C1203      C1210   1.401       .  A
C1206      C1207   1.400       .  A
C1206      F1211   1.358       .  S
C1207      C1208   1.415       .  A
C1207      F1213   1.358       .  S
C1208      C1209   1.413       .  A
C1209      C1210   1.398       .  A
C1209      F1212   1.358       .  S
C1210      F1214   1.358       .  S
C1217      C1218   1.406       .  A
C1217      C1222   1.402       .  A
C1217      F1235   1.358       .  S
C1218      C1223   1.491       .  S
C1218      C1219   1.406       .  A
C1219      C1220   1.402       .  A
C1219      F1224   1.358       .  S
C1220      C1221   1.413       .  A
C1220      F1236   1.357       .  S
C1221      C1222   1.414       .  A
C1222      F1225   1.358       .  S
C1223      C1226   1.405       .  A
C1223      C1230   1.407       .  A
C1226      C1227   1.398       .  A
C1226      F1231   1.358       .  S
C1227      C1228   1.414       .  A
C1227      F1233   1.358       .  S
C1228      C1229   1.412       .  A
C1229      C1230   1.405       .  A
C1229      F1232   1.358       .  S
C1230      F1234   1.358       .  S
C1237      C1238   1.406       .  A
C1237      C1242   1.399       .  A
C1238      C1239   1.406       .  A
C1239      C1240   1.399       .  A
C1240      C1241   1.409       .  A
C1240      F1256   1.358       .  S
C1241      C1242   1.408       .  A
C1242      F1245   1.358       .  S
C1243      C1246   1.405       .  A
C1243      C1250   1.406       .  A
C1246      C1247   1.396       .  A
C1246      F1251   1.358       .  S
C1247      C1248   1.408       .  A
C1247      F1253   1.358       .  S
C1248      C1249   1.406       .  A
C1249      C1250   1.396       .  A
C1249      F1252   1.358       .  S
C1250      F1254   1.358       .  S
C1257      C1258   1.405       .  A
C1257      C1262   1.401       .  A
C1257      F1275   1.358       .  S
C1258      C1263   1.482       .  S
C1258      C1259   1.403       .  A
C1259      C1260   1.398       .  A
C1259      F1264   1.358       .  S
C1260      C1261   1.411       .  A
C1260      F1276   1.358       .  S
C1261      C1262   1.410       .  A
C1262      F1265   1.358       .  S
C1263      C1266   1.405       .  A
C1263      C1270   1.404       .  A
C1266      C1267   1.399       .  A
C1266      F1271   1.358       .  S
C1267      C1268   1.410       .  A
C1267      F1273   1.358       .  S
C1268      C1269   1.411       .  A
C1269      C1270   1.399       .  A
C1269      F1272   1.358       .  S
C1270      F1274   1.358       .  S
C1277      C1278   1.402       .  A
C1277      C1282   1.398       .  A
C1277      F1295   1.358       .  S
C1278      C1283   1.481       .  S
C1278      C1279   1.403       .  A
C1279      C1280   1.402       .  A
C1279      F1284   1.358       .  S
C1280      C1281   1.415       .  A
C1280      F1296   1.358   1_565  S
C1281      C1282   1.412       .  A
C1282      F1285   1.357       .  S
C1283      C1286   1.403       .  A
C1283      C1290   1.402       .  A
C1286      C1287   1.398       .  A
C1286      F1291   1.358       .  S
C1287      C1288   1.411       .  A
C1287      F1293   1.357       .  S
C1288      C1289   1.415       .  A
C1289      C1290   1.402       .  A
C1289      F1292   1.358       .  S
C1290      F1294   1.358       .  S
