geometry optimzed in LAMMPS
_audit_creation_date              2020-12-01 
_audit_creation_method            'lammps2cif' 
_symmetry_space_group_name_H-M    'P1' 
_symmetry_Int_Tables_number       1 
_symmetry_cell_setting            triclinic 
loop_ 
_symmetry_equiv_pos_as_xyz 
  x,y,z 
_cell_length_a                    25.26461008 
_cell_length_b                    25.653839618591576 
_cell_length_c                    24.86583797156732 
_cell_angle_alpha                 88.99768998259188 
_cell_angle_beta                  91.20343737413968 
_cell_angle_gamma                 89.91778821082178 
loop_ 
_atom_site_label 
_atom_site_type_symbol 
_atom_site_fract_x 
_atom_site_fract_y 
_atom_site_fract_z 
_atom_site_charge 
C1          C  0.69732332  0.36901763  0.28320944     0.05100
C2          C  0.64893777  0.35200392  0.26044715    -0.11100
C3          C  0.62316114  0.30701265  0.27916229     0.02600
C4          C  0.64619143  0.27809330  0.32258935    -0.09600
C5          C  0.69426731  0.29339447  0.34794430     0.05100
C6          C  0.71943090  0.33947640  0.32769715    -0.09000
H7          H  0.63017760  0.37369058  0.22770325     0.10700
H8          H  0.62734545  0.24253840  0.33619074     0.08200
H9          H  0.75650834  0.35212524  0.34556864     0.08000
C10         C  0.69919978  0.77093432  0.27941512     0.05100
C11         C  0.65071074  0.79453839  0.26242232    -0.11100
C12         C  0.63115615  0.84066332  0.28678675     0.02600
C13         C  0.66236936  0.86319873  0.32890789    -0.09600
C14         C  0.71151900  0.84033390  0.34643074     0.05100
C15         C  0.72822433  0.79448725  0.32137316    -0.09000
H16         H  0.62774319  0.77687130  0.23037133     0.10700
H17         H  0.64901413  0.89870446  0.34697174     0.08200
H18         H  0.76539145  0.77683435  0.33462047     0.08000
C19         C  0.21570365  0.83342795  0.29175664     0.05100
C20         C  0.19093823  0.78851070  0.27073196    -0.11100
C21         C  0.14581134  0.76552253  0.29392774     0.02600
C22         C  0.12517368  0.78882488  0.34020072    -0.09600
C23         C  0.14852677  0.83379177  0.36345680     0.05100
C24         C  0.19402323  0.85570036  0.33876319    -0.09000
H25         H  0.20703733  0.77116867  0.23513914     0.10700
H26         H  0.09054957  0.77215178  0.35859888     0.08200
H27         H  0.21184873  0.89000570  0.35583965     0.08000
C28         C  0.24131773  0.83045829  0.85735879     0.05100
C29         C  0.21520574  0.78445783  0.87518622    -0.11100
C30         C  0.16906234  0.76492006  0.84881777     0.02600
C31         C  0.14904591  0.79291471  0.80275580    -0.09600
C32         C  0.17326558  0.83932194  0.78321951     0.05100
C33         C  0.21955946  0.85727371  0.81126683    -0.09000
H34         H  0.23134989  0.76409115  0.91021540     0.10700
H35         H  0.11361891  0.77867187  0.78284415     0.08200
H36         H  0.23790538  0.89302051  0.79752076     0.08000
C37         C  0.72493139  0.29593551  0.76466194     0.05100
C38         C  0.74149015  0.34241479  0.78905500    -0.11100
C39         C  0.71772366  0.36132693  0.83584819     0.02600
C40         C  0.67554263  0.33149036  0.85835803    -0.09600
C41         C  0.65778666  0.28392692  0.83498320     0.05100
C42         C  0.68329452  0.26718657  0.78808997    -0.09000
H43         H  0.77347005  0.36349853  0.77064728     0.10700
H44         H  0.65723038  0.34534359  0.89433103     0.08200
H45         H  0.67119479  0.23066780  0.77060488     0.08000
C46         C  0.71164162  0.85557661  0.76682587     0.05100
C47         C  0.66984171  0.87745503  0.79604339    -0.11100
C48         C  0.64925004  0.85399346  0.84302145     0.02600
C49         C  0.67232892  0.80623021  0.86126018    -0.09600
C50         C  0.71505041  0.78218597  0.83389362     0.05100
C51         C  0.73410626  0.80750671  0.78631315    -0.09000
H52         H  0.65285285  0.91410271  0.78179842     0.10700
H53         H  0.65736241  0.78762443  0.89722938     0.08200
H54         H  0.76648420  0.79037079  0.76507214     0.08000
C55         C  0.16874241  0.28007681  0.78856361     0.05100
C56         C  0.21850464  0.26591515  0.81108479    -0.11100
C57         C  0.24331661  0.29447105  0.85241425     0.02600
C58         C  0.21624273  0.33896883  0.87225989    -0.09600
C59         C  0.16581549  0.35527000  0.85103138     0.05100
C60         C  0.14308376  0.32512185  0.80862193    -0.09000
H61         H  0.23737600  0.23117265  0.79665432     0.10700
H62         H  0.23483459  0.36075747  0.90429404     0.08200
H63         H  0.10471143  0.33640162  0.79216462     0.08000
C64         C  0.21159584  0.29117440  0.30320170     0.05100
C65         C  0.18850288  0.27150910  0.35108178    -0.11100
C66         C  0.14430706  0.29589475  0.37434985     0.02600
C67         C  0.12313645  0.34124351  0.34875322    -0.09600
C68         C  0.14467029  0.36253828  0.30112205     0.05100
C69         C  0.18926962  0.33710994  0.27912706    -0.09000
H70         H  0.20442283  0.23611914  0.36937561     0.10700
H71         H  0.08955344  0.35984782  0.36663760     0.08200
H72         H  0.20593025  0.35311348  0.24273026     0.08000
O73         O  0.01394556  0.13517504  0.57524109    -0.53500
O74         O  0.81893059  0.24959804  0.49939236    -0.61400
C75         C  0.77930861  0.23228823  0.47214623     0.99500
O76         O  0.17900755  0.01694910  0.60803090    -0.66600
O77         O  0.07543953  0.05678675  0.64510440    -0.64500
C78         C  0.66971182  0.06194980  0.54302873     0.91500
O79         O  0.89617485  0.30586636  0.57170375    -0.66600
C80         C  0.76801948  0.22237031  0.63482244     0.99100
C81         C  0.94357750  0.32285215  0.57155966     0.92000
Ti82       Ti  0.87265505  0.22568937  0.56456444     1.51200
Ti83       Ti  0.00025892  0.90696864  0.55653371     1.51300
O84         O  0.93222618  0.20620631  0.62543357    -0.60500
O85         O  0.78791076  0.06724938  0.49603252    -0.64500
C86         C  0.08866536  0.89364687  0.65451889     0.99500
O87         O  0.86025614  0.99308633  0.55813032    -0.53500
C88         C  0.77376764  0.92012531  0.46827389     0.99200
Ti89       Ti  0.77035500  0.13017325  0.54895138     1.51000
Ti90       Ti  0.99706363  0.21668658  0.57046985     1.53000
Ti91       Ti  0.09705531  0.12170552  0.59335917     1.49300
O92         O  0.76517303  0.95169849  0.62474201    -0.60200
O93         O  0.69658804  0.02271867  0.55818312    -0.66600
O94         O  0.98367639  0.29476318  0.56660370    -0.66700
O95         O  0.85295858  0.14558013  0.55815513    -0.53500
O96         O  0.09710870  0.06451567  0.53098268    -0.64500
O97         O  0.06079238  0.89860233  0.49759222    -0.61300
O98         O  0.93593508  0.20859981  0.50931311    -0.60500
O99         O  0.81602085  0.88468286  0.60087890    -0.61900
O100        O  0.98017617  0.82963687  0.53932124    -0.66700
O101        O  0.81398392  0.24069750  0.62497740    -0.61300
O102        O  0.01793170  0.98658038  0.57041170    -0.53500
C103        C  0.93526140  0.80997290  0.52848244     0.92000
O104        O  0.78509352  0.07168175  0.61225652    -0.64500
O105        O  0.04918083  0.23890462  0.63547936    -0.61900
O106        O  0.05211703  0.87635538  0.62268205    -0.61300
C107        C  0.08468217  0.22034242  0.66707775     0.99400
C108        C  0.78191962  0.90474501  0.63189649     0.99300
C109        C  0.19915671  0.06046813  0.62072292     0.91400
O110        O  0.10749440  0.93935460  0.64848092    -0.60700
O111        O  0.75778865  0.18793159  0.48308690    -0.60600
C112        C  0.10791590  0.91512743  0.49183845     0.99000
Ti113      Ti  0.09993417  0.99975885  0.58706893     1.51000
O114        O  0.82182202  0.90550678  0.47451238    -0.61900
O115        O  0.74705811  0.18561020  0.60789414    -0.60700
O116        O  0.12482471  0.18027233  0.53572406    -0.60300
O117        O  0.89168209  0.83403057  0.52993293    -0.66800
O118        O  0.05584959  0.23028933  0.51033457    -0.61900
O119        O  0.17646218  0.10433576  0.61361926    -0.66400
O120        O  0.75353522  0.95242115  0.49966358    -0.60200
Ti121      Ti  0.87536031  0.91200071  0.54447311     1.53200
O122        O  0.10326487  0.17472339  0.66073062    -0.60200
O123        O  0.94237454  0.93269397  0.49531036    -0.60600
O124        O  0.12858805  0.94878217  0.52363525    -0.60700
C125        C  0.10341600  0.21504420  0.50463767     0.99400
O126        O  0.68855663  0.10799119  0.53799307    -0.66600
Ti127      Ti  0.77680159  0.00782651  0.55867283     1.49500
O128        O  0.93390934  0.91221257  0.60950148    -0.60600
O129        O  0.42272249  0.99920711  0.16121851    -0.53500
O130        O  0.46599998  0.19944865  0.25718319    -0.61400
C131        C  0.49168049  0.23698337  0.23640333     0.99500
O132        O  0.43540196  0.82905372  0.05028086    -0.66600
O133        O  0.37335869  0.92445325  0.07946869    -0.64500
C134        C  0.42995462  0.33153533  0.05109398     0.91500
O135        O  0.39445153  0.13181004  0.31481754    -0.66600
C136        C  0.33118616  0.24104227  0.21418360     0.99100
C137        C  0.39258302  0.09037325  0.34264603     0.92000
Ti138      Ti  0.40830791  0.14306801  0.23317782     1.51200
Ti139      Ti  0.45824448  0.00148073  0.91783582     1.51300
O140        O  0.35585389  0.07841617  0.21694431    -0.60500
O141        O  0.48942200  0.21706662  0.07392717    -0.64500
C142        C  0.37003288  0.90837490  0.91093733     0.99500
O143        O  0.44428074  0.14210195  0.99023168    -0.53500
C144        C  0.53696475  0.22519630  0.91886144     0.99200
Ti145      Ti  0.42484594  0.23549833  0.12652186     1.51000
Ti146      Ti  0.41455249  0.02095475  0.24409984     1.53000
Ti147      Ti  0.42466470  0.91612515  0.15056734     1.49300
O148        O  0.38429610  0.23540708  0.93810968    -0.60200
O149        O  0.43565629  0.30247116  0.01168948    -0.66600
O150        O  0.40261331  0.04519866  0.32463944    -0.66700
O151        O  0.42140821  0.15460488  0.14943108    -0.53500
O152        O  0.48709375  0.92549154  0.09237402    -0.64500
O153        O  0.52045565  0.94429223  0.91499247    -0.61300
O154        O  0.46954020  0.08389250  0.23349627    -0.60500
O155        O  0.40454170  0.18012953  0.87296093    -0.61900
O156        O  0.48008842  0.01475755  0.83837160    -0.66700
O157        O  0.34357900  0.19806442  0.23769265    -0.61300
O158        O  0.43899107  0.98897337  0.00062095    -0.53500
C159        C  0.49679526  0.05545053  0.81458849     0.92000
O160        O  0.37551805  0.21513530  0.05790558    -0.64500
O161        O  0.35421638  0.96485356  0.26063379    -0.61900
O162        O  0.39744782  0.94613660  0.89115983    -0.61300
C163        C  0.33653485  0.92190512  0.24320290     0.99400
C164        C  0.37592397  0.21707820  0.89168124     0.99300
C165        C  0.43634952  0.80979415  0.09782224     0.91400
O166        O  0.37919169  0.88953539  0.95859855    -0.60700
O167        O  0.48123396  0.25536111  0.18933621    -0.60600
C168        C  0.53103205  0.90033681  0.93680700     0.99000
Ti169      Ti  0.43634036  0.90766867  0.02363440     1.51000
O170        O  0.52856653  0.17979443  0.90035951    -0.61900
O171        O  0.35712745  0.25871030  0.17409236    -0.60700
O172        O  0.48349717  0.90389888  0.21372733    -0.60300
O173        O  0.48801556  0.10171220  0.83024982    -0.66800
O174        O  0.47906962  0.96867949  0.27272600    -0.61900
O175        O  0.42992670  0.83557942  0.14006277    -0.66400
O176        O  0.50725426  0.24416827  0.95421025    -0.60200
Ti177      Ti  0.46323386  0.12444379  0.90820000     1.53200
O178        O  0.35737859  0.89918593  0.20325563    -0.60200
O179        O  0.51409263  0.06246686  0.94017244    -0.60600
O180        O  0.50365822  0.88254263  0.97572518    -0.60700
C181        C  0.50103200  0.92700402  0.25544118     0.99400
O182        O  0.42677080  0.31540214  0.09965227    -0.66600
Ti183      Ti  0.44008558  0.22387505  0.00251477     1.49500
O184        O  0.40250723  0.06488714  0.91145485    -0.60600
O185        O  0.86638574  0.57092131  0.96789039    -0.53500
O186        O  0.72670778  0.50890361  0.14506252    -0.61400
C187        C  0.74049298  0.49024362  0.19144286     0.99500
O188        O  0.01771039  0.56211476  0.83123530    -0.66600
O189        O  0.95882025  0.62263689  0.91243413    -0.64500
C190        C  0.87542485  0.56145188  0.32638674     0.91500
O191        O  0.67693451  0.57034323  0.05314123    -0.66600
C192        C  0.73954829  0.65128505  0.18866401     0.99100
C193        C  0.66583401  0.57069606  0.00273949     0.92000
Ti194      Ti  0.75424473  0.57104045  0.09120947     1.51200
Ti195      Ti  0.09976536  0.56044998  0.03330760     1.51300
O196        O  0.78063753  0.62780479  0.03182136    -0.60500
O197        O  0.89780220  0.51184288  0.20885024    -0.64500
C198        C  0.11857775  0.64073298  0.93366999     0.99500
O199        O  0.98941775  0.56715152  0.15581485    -0.53500
C200        C  0.05393939  0.48269032  0.25325048     0.99200
Ti201      Ti  0.83570812  0.57013345  0.21023203     1.51000
Ti202      Ti  0.78135751  0.57136299  0.96826255     1.53000
Ti203      Ti  0.89709073  0.56936333  0.88716161     1.49300
O204        O  0.01234043  0.62466092  0.26600836    -0.60200
O205        O  0.92389714  0.56182901  0.31320696    -0.66600
O206        O  0.69982589  0.57162484  0.96657866    -0.66700
O207        O  0.83346998  0.57179859  0.12445966    -0.53500
O208        O  0.95350147  0.51001973  0.91463751    -0.64500
O209        O  0.12641978  0.49728546  0.98195347    -0.61300
O210        O  0.78107105  0.51487709  0.03384101    -0.60500
O211        O  0.08303430  0.62593630  0.21337490    -0.61900
O212        O  0.17550279  0.55559747  0.07135554    -0.66700
O213        O  0.72570119  0.63239679  0.14312064    -0.61300
O214        O  0.02119129  0.56379257  0.99946696    -0.53500
C215        C  0.18833550  0.55420360  0.12120322     0.92000
O216        O  0.90093369  0.62464548  0.21048264    -0.64500
O217        O  0.77414232  0.63374843  0.90855150    -0.61900
O218        O  0.13078425  0.62076776  0.97983997    -0.61300
C219        C  0.80157031  0.65394951  0.87108221     0.99400
C220        C  0.05678372  0.64409926  0.25211052     0.99300
C221        C  0.98018281  0.56323880  0.79719629     0.91400
O222        O  0.08028824  0.62311045  0.90507040    -0.60700
O223        O  0.77816307  0.50956228  0.21894381    -0.60600
C224        C  0.11394448  0.47839704  0.93597086     0.99000
Ti225      Ti  0.02007131  0.56308926  0.91377190     1.51000
O226        O  0.08153187  0.50272976  0.21627730    -0.61900
O227        O  0.77827465  0.63248783  0.21671532    -0.60700
O228        O  0.84243683  0.50951749  0.85937220    -0.60300
O229        O  0.15637763  0.55968284  0.15879005    -0.66800
O230        O  0.77253457  0.50861011  0.91243438    -0.61900
O231        O  0.93126840  0.56699038  0.80875397    -0.66400
O232        O  0.00853203  0.50105659  0.26467407    -0.57700
Ti233      Ti  0.07426388  0.56373155  0.15645896     1.53200
O234        O  0.84625100  0.63427345  0.85796515    -0.60200
O235        O  0.07151622  0.50611205  0.09359114    -0.60600
O236        O  0.07621475  0.49813384  0.90709297    -0.60700
C237        C  0.79856081  0.48972239  0.87425399     0.99400
O238        O  0.83703353  0.56745071  0.29378757    -0.66600
Ti239      Ti  0.95810613  0.56534567  0.23590629     1.49500
O240        O  0.07618810  0.61892673  0.09004762    -0.60600
N241        N  0.96348750  0.50107841  0.52817908    -0.34700
N242        N  0.08082748  0.51219455  0.59066680    -0.55200
N243        N  0.98818362  0.61472132  0.61904916    -0.34700
N244        N  0.89790441  0.58027407  0.55638029    -0.55200
C245        C  0.00852026  0.47618613  0.51624393     0.28900
C246        C  0.93483935  0.50723073  0.48249085     0.28900
C247        C  0.04025394  0.60486275  0.62497124     0.28900
C248        C  0.98252695  0.64849597  0.57799851     0.28900
C249        C  0.06985119  0.46105961  0.58986797     0.37500
C250        C  0.08703120  0.52417835  0.64276382     0.37500
C251        C  0.86401473  0.56164911  0.51951273     0.37500
C252        C  0.88928498  0.63149707  0.55822073     0.37500
C253        C  0.00957131  0.46686714  0.46178165    -0.19900
C254        C  0.96313540  0.48700820  0.44004244    -0.19900
C255        C  0.06864296  0.63260947  0.58716631    -0.19900
C256        C  0.03176894  0.66221578  0.55825028    -0.19900
C257        C  0.08158405  0.43817635  0.63960551    -0.21000
C258        C  0.09329434  0.47862423  0.67345883    -0.21000
C259        C  0.82409492  0.59827262  0.50951497    -0.21000
C260        C  0.84098788  0.64346275  0.53346922    -0.21000
C261        C  0.03118339  0.44260854  0.55407658    -0.16300
C262        C  0.88363429  0.52952945  0.47918053    -0.16300
C263        C  0.93317962  0.66440857  0.55777813    -0.16300
C264        C  0.05954652  0.56746455  0.66142291    -0.16300
H265        H  0.03768840  0.44283625  0.44117086     0.16600
H266        H  0.95042855  0.48395787  0.39841221     0.16600
H267        H  0.11095523  0.63155283  0.58133811     0.16600
H268        H  0.03980692  0.68812835  0.52459730     0.16600
H269        H  0.07257885  0.39867572  0.65243942     0.14900
H270        H  0.09402034  0.47543028  0.71696118     0.14800
H271        H  0.79342274  0.59671820  0.47850759     0.14900
H272        H  0.82543251  0.68199462  0.52415029     0.14800
H273        H  0.95017157  0.50523815  0.56743215     0.28100
H274        H  0.95741297  0.59795068  0.64082733     0.28100
N275        N  0.47158776  0.01939921  0.53132540    -0.34700
N276        N  0.40205742  0.08084974  0.59159327    -0.55200
N277        N  0.43156288  0.03347711  0.69465833    -0.34700
N278        N  0.51607606  0.94084213  0.61315993    -0.55200
C279        C  0.43285137  0.03007033  0.49519024     0.28900
C280        C  0.49988130  0.97993737  0.51168614     0.28900
C281        C  0.37969652  0.02796227  0.68529834     0.28900
C282        C  0.45370761  0.98587652  0.69273698     0.28900
C283        C  0.39098632  0.10205752  0.54310117     0.37500
C284        C  0.36894560  0.10217238  0.62649005     0.37500
C285        C  0.55700853  0.94344739  0.57948055     0.37500
C286        C  0.53643988  0.94845943  0.66269902     0.37500
C287        C  0.43563953  0.99516710  0.45292865    -0.19900
C288        C  0.47902337  0.96380756  0.46322393    -0.19900
C289        C  0.36752822  0.97544370  0.67964122    -0.19900
C290        C  0.41527367  0.94869212  0.68290507    -0.19900
C291        C  0.35530525  0.14268913  0.54764954    -0.21000
C292        C  0.34113800  0.14278707  0.60095732    -0.21000
C293        C  0.60431896  0.94154210  0.60893907    -0.21000
C294        C  0.59115024  0.94572290  0.66209123    -0.21000
C295        C  0.40137528  0.07524046  0.49596030    -0.16300
C296        C  0.55084911  0.97017325  0.52992694    -0.16300
C297        C  0.50835491  0.97845477  0.69859100    -0.16300
C298        C  0.34857998  0.06995931  0.66721605    -0.16300
H299        H  0.41076213  0.99399379  0.41711220     0.16600
H300        H  0.49549518  0.93536165  0.43659581     0.16600
H301        H  0.32954830  0.95896922  0.66840783     0.16600
H302        H  0.42114828  0.90726648  0.67804314     0.16600
H303        H  0.33584766  0.16446689  0.51520142     0.14900
H304        H  0.30797356  0.16397159  0.61678118     0.14800
H305        H  0.64369823  0.94623600  0.59349064     0.14900
H306        H  0.61842229  0.95496965  0.69465449     0.14800
H307        H  0.48369385  0.04213349  0.56383542     0.28100
H308        H  0.45131809  0.06920825  0.69634025     0.28100
N309        N  0.44542627  0.52352027  0.92194181    -0.34700
N310        N  0.36568264  0.51306307  0.01182982    -0.55200
N311        N  0.40185158  0.59039139  0.07699407    -0.34700
N312        N  0.47353658  0.61193085  0.99708041    -0.55200
C313        C  0.43864777  0.47160816  0.92801638     0.28900
C314        C  0.49776284  0.53110906  0.91551512     0.28900
C315        C  0.37414404  0.56363381  0.11333833     0.28900
C316        C  0.43393430  0.62267982  0.10352939     0.28900
C317        C  0.35480723  0.47936104  0.97277686     0.37500
C318        C  0.32663705  0.51077180  0.04719306     0.37500
C319        C  0.49617865  0.61923086  0.94926674     0.37500
C320        C  0.47598735  0.65725354  0.02307589     0.37500
C321        C  0.48555122  0.44571864  0.91780952    -0.19900
C322        C  0.52310586  0.48354430  0.90953876    -0.19900
C323        C  0.38779307  0.57979888  0.16473524    -0.19900
C324        C  0.42601737  0.61781965  0.15842372    -0.19900
C325        C  0.30543999  0.45734982  0.98171256    -0.21000
C326        C  0.28708878  0.47784483  0.02877239    -0.21000
C327        C  0.51343770  0.67046633  0.94470024    -0.21000
C328        C  0.49971751  0.69501712  0.99128781    -0.21000
C329        C  0.39689937  0.44949459  0.95675647    -0.16300
C330        C  0.52369603  0.57780215  0.92837262    -0.16300
C331        C  0.46134799  0.66193913  0.07691374    -0.16300
C332        C  0.33179269  0.53187336  0.09875937    -0.16300
H333        H  0.49321301  0.40432412  0.92250435     0.16600
H334        H  0.56523953  0.47678218  0.90645097     0.16600
H335        H  0.37033166  0.56729656  0.20217671     0.16600
H336        H  0.44399113  0.64082931  0.18995253     0.16600
H337        H  0.28873408  0.42398100  0.96147574     0.14900
H338        H  0.25227826  0.46512752  0.04993538     0.14800
H339        H  0.53870279  0.68646723  0.91392174     0.14900
H340        H  0.50997868  0.73444178  0.00222947     0.14800
H341        H  0.41771704  0.55226088  0.93054513     0.28100
H342        H  0.39078576  0.59562907  0.03664394     0.28100
C343        C  0.24113091  0.54344278  0.13559328    -0.11300
C344        C  0.28641058  0.53321990  0.13060374    -0.12900
C345        C  0.61333530  0.57053759  0.98256941    -0.11300
C346        C  0.57451206  0.57252768  0.95431532    -0.12900
C347        C  0.86301497  0.53747416  0.42616345    -0.11300
C348        C  0.86308458  0.55041071  0.38011271    -0.12900
C349        C  0.99729185  0.56040696  0.74402425    -0.11300
C350        C  0.02692673  0.56067848  0.70730097    -0.12900
C351        C  0.41280323  0.41392416  0.99927712    -0.11300
C352        C  0.42307898  0.38369150  0.03509831    -0.12900
C353        C  0.44831568  0.75667839  0.10404389    -0.11300
C354        C  0.45948402  0.71218459  0.09890619    -0.12900
C355        C  0.38027211  0.09555587  0.39737672    -0.11300
C356        C  0.38105805  0.09310024  0.44522765    -0.12900
C357        C  0.53400016  0.01623569  0.73209703    -0.11300
C358        C  0.52685859  0.04562070  0.76818042    -0.12900
C359        C  0.58465014  0.01500589  0.52298019    -0.11300
C360        C  0.61702411  0.04887310  0.52842103    -0.12900
C361        C  0.29299520  0.06321474  0.66423558    -0.11300
C362        C  0.24916887  0.06017196  0.64637554    -0.12900
C363        C  0.93076956  0.71190407  0.52893854    -0.11300
C364        C  0.93280293  0.75688053  0.51908084    -0.12900
C365        C  0.99226660  0.40650096  0.57298378    -0.11300
C366        C  0.95734109  0.37535347  0.57694731    -0.12900
C367        C  0.11627769  0.27406542  0.42328024    -0.14500
C368        C  0.13536532  0.23745039  0.45903345    -0.29700
H369        H  0.07692396  0.28941564  0.43011131     0.14500
H370        H  0.17509588  0.22233701  0.45448492     0.15100
C371        C  0.07526119  0.43556192  0.28414429    -0.14500
C372        C  0.12190477  0.41111552  0.27294036    -0.29700
H373        H  0.05069168  0.42027833  0.31589737     0.14500
H374        H  0.14467093  0.42696635  0.23989630     0.15100
C375        C  0.25813764  0.26126977  0.28013864    -0.14500
C376        C  0.28479248  0.27264784  0.23408104    -0.29700
H377        H  0.27126917  0.22703908  0.30308105     0.14500
H378        H  0.27343924  0.30678413  0.21025401     0.15100
C379        C  0.14585885  0.24464619  0.74532043    -0.14500
C380        C  0.10376098  0.25508010  0.71212306    -0.29700
H381        H  0.16652070  0.20812021  0.73915036     0.14500
H382        H  0.08328779  0.29198050  0.71595626     0.15100
C383        C  0.14578427  0.43151852  0.91644387    -0.14500
C384        C  0.13528980  0.40327585  0.87092124    -0.29700
H385        H  0.17895980  0.41942505  0.94209790     0.14500
H386        H  0.10092560  0.41523439  0.84676249     0.15100
C387        C  0.29556493  0.27628018  0.87833086    -0.14500
C388        C  0.32910468  0.23876450  0.85940404    -0.29700
H389        H  0.30596578  0.29387949  0.91652634     0.14500
H390        H  0.32112346  0.22144901  0.82066060     0.15100
C391        C  0.73060236  0.88704226  0.71796692    -0.14500
C392        C  0.76286980  0.87069331  0.67844178    -0.29700
H393        H  0.71621957  0.92689420  0.71417651     0.14500
H394        H  0.77748654  0.83090764  0.68056425     0.15100
C395        C  0.78106759  0.70327099  0.84201447    -0.14500
C396        C  0.73755808  0.73087291  0.85767212    -0.29700
H397        H  0.80374343  0.71791072  0.80845107     0.14500
H398        H  0.71683848  0.71524623  0.89221858     0.15100
C399        C  0.60396623  0.88247855  0.87034854    -0.14500
C400        C  0.57671723  0.86822939  0.91534360    -0.29700
H401        H  0.59165136  0.91884224  0.85077759     0.14500
H402        H  0.58675884  0.83193884  0.93617026     0.15100
C403        C  0.75475213  0.27771251  0.71638063    -0.14500
C404        C  0.73648689  0.24272037  0.68040880    -0.29700
H405        H  0.79370714  0.29435623  0.71006854     0.14500
H406        H  0.69707510  0.22675025  0.68495555     0.15100
C407        C  0.77801139  0.44202507  0.84579906    -0.14500
C408        C  0.73666429  0.41148517  0.86238929    -0.29700
H409        H  0.80015874  0.43120379  0.81097679     0.14500
H410        H  0.71607709  0.42317909  0.89815229     0.15100
C411        C  0.58237846  0.25923982  0.89971897    -0.14500
C412        C  0.61370366  0.24919942  0.85718360    -0.29700
H413        H  0.58835343  0.29540381  0.92090967     0.14500
H414        H  0.60592455  0.21317485  0.83610829     0.15100
C415        C  0.15078955  0.87167912  0.73525766    -0.14500
C416        C  0.10967162  0.85885592  0.70080692    -0.29700
H417        H  0.16985725  0.90898112  0.72794412     0.14500
H418        H  0.09040725  0.82144723  0.70598482     0.15100
C419        C  0.15059453  0.68712161  0.91384162    -0.14500
C420        C  0.13964678  0.71604066  0.86812283    -0.29700
H421        H  0.18337539  0.69854567  0.93977143     0.14500
H422        H  0.10591481  0.70397676  0.84358025     0.15100
C423        C  0.28928045  0.84979308  0.89049060    -0.14500
C424        C  0.32465691  0.88754143  0.87580950    -0.29700
H425        H  0.29566960  0.83144077  0.92979301     0.14500
H426        H  0.31980994  0.90567817  0.83628639     0.15100
C427        C  0.12155839  0.85672383  0.41203705    -0.14500
C428        C  0.13985138  0.89470299  0.44551298    -0.29700
H429        H  0.08306788  0.84029921  0.42105068     0.14500
H430        H  0.17865588  0.91143346  0.43911017     0.15100
C431        C  0.07825428  0.69049779  0.28233751    -0.14500
C432        C  0.12224255  0.71748577  0.26742009    -0.29700
H433        H  0.05614529  0.70309156  0.31666408     0.14500
H434        H  0.14264039  0.70373010  0.23233199     0.15100
C435        C  0.28936725  0.89991023  0.27267481    -0.14500
C436        C  0.26387029  0.85455390  0.26223872    -0.29700
H437        H  0.27500841  0.92363949  0.30493577     0.14500
H438        H  0.27853210  0.83167259  0.22932532     0.15100
C439        C  0.74865695  0.86193954  0.38968709    -0.14500
C440        C  0.73761276  0.90093836  0.42359702    -0.29700
H441        H  0.78714679  0.84334501  0.39489846     0.14500
H442        H  0.69890777  0.91919968  0.42036597     0.15100
C443        C  0.72256928  0.72150249  0.25642575    -0.14500
C444        C  0.70955311  0.69798135  0.20927968    -0.29700
H445        H  0.75535879  0.70439625  0.27959411     0.14500
H446        H  0.67776491  0.71414443  0.18412286     0.15100
C447        C  0.57908868  0.86405608  0.26465613    -0.14500
C448        C  0.55052799  0.90504210  0.28395329    -0.29700
H449        H  0.56330822  0.84583902  0.22862986     0.14500
H450        H  0.56446554  0.92439202  0.31998074     0.15100
C451        C  0.71581875  0.25837052  0.39403530    -0.14500
C452        C  0.75924893  0.26722940  0.42587346    -0.29700
H453        H  0.69374133  0.22298719  0.40262804     0.14500
H454        H  0.78157503  0.30266603  0.41878598     0.15100
C455        C  0.72512733  0.41733614  0.26094976    -0.14500
C456        C  0.71163599  0.44344655  0.21386625    -0.29700
H457        H  0.75905476  0.43134501  0.28398881     0.14500
H458        H  0.67930420  0.42955234  0.18882765     0.15100
C459        C  0.53690599  0.25775425  0.26915636    -0.14500
C460        C  0.57397858  0.29008747  0.24914491    -0.29700
H461        H  0.54111409  0.24329438  0.31028959     0.14500
H462        H  0.56826083  0.30498390  0.20824190     0.15100
loop_ 
_geom_bond_atom_site_label_1 
_geom_bond_atom_site_label_2 
_geom_bond_distance 
_geom_bond_site_symmetry_2 
_ccdc_geom_bond_type 
C1            C2   1.409       .  A
C1            C6   1.433       .  A
C1          C455   1.527       .  S
C2            C3   1.403       .  A
C2            H7   1.079       .  S
C3            C4   1.414       .  A
C3          C460   1.505       .  S
C4            C5   1.416       .  A
C4            H8   1.082       .  S
C5            C6   1.432       .  A
C5          C451   1.534       .  S
C6            H9   1.081       .  S
C10          C11   1.419       .  A
C10          C15   1.408       .  A
C10         C443   1.523       .  S
C11          C12   1.431       .  A
C11          H16   1.082       .  S
C12          C13   1.429       .  A
C12         C447   1.533       .  S
C13          C14   1.429       .  A
C13          H17   1.079       .  S
C14          C15   1.409       .  A
C14         C439   1.525       .  S
C15          H18   1.084       .  S
C19          C20   1.415       .  A
C19          C24   1.429       .  A
C19         C436   1.529       .  S
C20          C21   1.413       .  A
C20          H25   1.084       .  S
C21          C22   1.415       .  A
C21         C432   1.524       .  S
C22          C23   1.423       .  A
C22          H26   1.081       .  S
C23          C24   1.426       .  A
C23         C427   1.526       .  S
C24          H27   1.079       .  S
C28          C29   1.421       .  A
C28          C33   1.426       .  A
C28         C423   1.539       .  S
C29          C30   1.422       .  A
C29          H34   1.080       .  S
C30          C31   1.425       .  A
C30         C420   1.534       .  S
C31          C32   1.422       .  A
C31          H35   1.081       .  S
C32          C33   1.430       .  A
C32         C415   1.539       .  S
C33          H36   1.081       .  S
C37          C38   1.407       .  A
C37          C42   1.415       .  A
C37         C403   1.511       .  S
C38          C39   1.414       .  A
C38          H43   1.078       .  S
C39          C40   1.431       .  A
C39         C408   1.529       .  S
C40          C41   1.429       .  A
C40          H44   1.081       .  S
C41          C42   1.417       .  A
C41         C412   1.533       .  S
C42          H45   1.082       .  S
C46          C47   1.415       .  A
C46          C51   1.429       .  A
C46         C391   1.532       .  S
C47          C48   1.414       .  A
C47          H52   1.084       .  S
C48          C49   1.419       .  A
C48         C399   1.534       .  S
C49          C50   1.433       .  A
C49          H53   1.082       .  S
C50          C51   1.432       .  A
C50         C396   1.537       .  S
C51          H54   1.080       .  S
C55          C56   1.410       .  A
C55          C60   1.427       .  A
C55         C379   1.525       .  S
C56          C57   1.409       .  A
C56          H61   1.081       .  S
C57          C58   1.430       .  A
C57         C387   1.526       .  S
C58          C59   1.428       .  A
C58          H62   1.081       .  S
C59          C60   1.430       .  A
C59         C384   1.546       .  S
C60          H63   1.081       .  S
C64          C65   1.422       .  A
C64          C69   1.423       .  A
C64         C375   1.530       .  S
C65          C66   1.418       .  A
C65          H70   1.082       .  S
C66          C67   1.415       .  A
C66         C367   1.520       .  S
C67          C68   1.415       .  A
C67          H71   1.081       .  S
C68          C69   1.425       .  A
C68         C372   1.525       .  S
C69          H72   1.081       .  S
O73         Ti91   2.164       .  S
O73         Ti90   2.134   1_455  S
O74          C75   1.281       .  A
O74         Ti82   2.171       .  S
C75         C452   1.524       .  S
C75         O111   1.289       .  A
O76         C109   1.270       .  A
O76        Ti113   2.103   1_545  S
O77        Ti113   2.171   1_545  S
O77         Ti91   2.164       .  S
C78          O93   1.261       .  A
C78         O126   1.279       .  A
C78         C360   1.415       .  S
O79          C81   1.275       .  A
O79         Ti82   2.151       .  S
C80         C404   1.500       .  S
C80         O115   1.275       .  A
C80         O101   1.280       .  A
C81          O94   1.252       .  A
C81         C366   1.399       .  S
Ti82         O95   2.123       .  S
Ti82         O98   2.179       .  S
Ti82         O84   2.164       .  S
Ti82        O101   2.171       .  S
Ti83        O128   2.159   1_455  S
Ti83        O123   2.182   1_455  S
Ti83        O102   2.124       .  S
Ti83        O100   2.098   1_455  S
Ti83         O97   2.153       .  S
Ti83        O106   2.214       .  S
O84         Ti90   2.169       .  S
O85        Ti127   2.183       .  S
O85         Ti89   2.152       .  S
C86         C416   1.530       .  S
C86         O106   1.288       .  A
C86         O110   1.274       .  A
O87        Ti121   2.148       .  S
O87        Ti127   2.142   1_565  S
C88         C440   1.513       .  S
C88         O114   1.276       .  A
C88         O120   1.263       .  A
Ti89        O104   2.182       .  S
Ti89         O95   2.133       .  S
Ti89        O126   2.157       .  S
Ti89        O115   2.150       .  S
Ti89        O111   2.207       .  S
Ti90         O98   2.157       .  S
Ti90        O118   2.154   1_655  S
Ti90         O94   2.031       .  S
Ti90        O105   2.149   1_655  S
Ti91         O96   2.154       .  S
Ti91        O122   2.180       .  S
Ti91        O116   2.185       .  S
Ti91        O119   2.103       .  S
O92         C108   1.284       .  A
O92        Ti127   2.190   1_565  S
O93        Ti127   2.061       .  S
O96        Ti113   2.150   1_545  S
O97         C112   1.274       .  A
O99         C108   1.282       .  A
O99        Ti121   2.182       .  S
O100        C103   1.268       .  A
O102       Ti113   2.133       .  S
C103        O117   1.263       .  A
C103        C364   1.387       .  S
O104       Ti127   2.137       .  S
O105        C107   1.267       .  A
C107        C380   1.515       .  S
C107        O122   1.274       .  A
C108        C392   1.524       .  S
C109        O119   1.270       .  A
C109        C362   1.403       .  S
O110       Ti113   2.162       .  S
C112        C428   1.520       .  S
C112        O124   1.285       .  A
Ti113       O124   2.200       .  S
O114       Ti121   2.190       .  S
O116        C125   1.282       .  A
O117       Ti121   2.081       .  S
O118        C125   1.275       .  A
O120       Ti127   2.135   1_565  S
Ti121       O128   2.169       .  S
Ti121       O123   2.170       .  S
C125        C368   1.512       .  S
O129       Ti147   2.153       .  S
O129       Ti146   2.158   1_565  S
O130        C131   1.270       .  A
O130       Ti138   2.138       .  S
C131        C459   1.494       .  S
C131        O167   1.276       .  A
O132        C165   1.273       .  A
O132       Ti169   2.112       .  S
O133       Ti169   2.181       .  S
O133       Ti147   2.177       .  S
C134        O149   1.252       .  A
C134        O182   1.274       .  A
C134        C352   1.399       .  S
O135        C137   1.260       .  A
O135       Ti138   2.082       .  S
C136        C376   1.520       .  S
C136        O171   1.281       .  A
C136        O157   1.274       .  A
C137        O150   1.277       .  A
C137        C355   1.411       .  S
Ti138       O151   2.131       .  S
Ti138       O154   2.166       .  S
Ti138       O140   2.163       .  S
Ti138       O157   2.164       .  S
Ti139       O184   2.152       .  S
Ti139       O179   2.180       .  S
Ti139       O158   2.144   1_546  S
Ti139       O156   2.085       .  S
Ti139       O153   2.152   1_545  S
Ti139       O162   2.194   1_545  S
O140       Ti146   2.178       .  S
O141       Ti183   2.152       .  S
O141       Ti145   2.169       .  S
C142        C424   1.529       .  S
C142        O162   1.288       .  A
C142        O166   1.288       .  A
O143       Ti177   2.161       .  S
O143       Ti183   2.128   1_556  S
C144        C411   1.522       .  S
C144        O170   1.276       .  A
C144        O176   1.271       .  A
Ti145       O160   2.164       .  S
Ti145       O151   2.145       .  S
Ti145       O182   2.146       .  S
Ti145       O171   2.188       .  S
Ti145       O167   2.160       .  S
Ti146       O154   2.148       .  S
Ti146       O174   2.208   1_545  S
Ti146       O150   2.135       .  S
Ti146       O161   2.139   1_545  S
Ti147       O152   2.174       .  S
Ti147       O178   2.207       .  S
Ti147       O172   2.158       .  S
Ti147       O175   2.092       .  S
O148        C164   1.268       .  A
O148       Ti183   2.128   1_556  S
O149       Ti183   2.036       .  S
O152       Ti169   2.171       .  S
O153        C168   1.268       .  A
O155        C164   1.291       .  A
O155       Ti177   2.214       .  S
O156        C159   1.268       .  A
O158       Ti169   2.155       .  S
C159        O173   1.276       .  A
C159        C358   1.421       .  S
O160       Ti183   2.166       .  S
O161        C163   1.269       .  A
C163        C435   1.516       .  S
C163        O178   1.283       .  A
C164        C388   1.515       .  S
C165        O175   1.264       .  A
C165        C353   1.401       .  S
O166       Ti169   2.201   1_556  S
C168        C400   1.528       .  S
C168        O180   1.279       .  A
Ti169       O180   2.199   1_554  S
O170       Ti177   2.188       .  S
O172        C181   1.275       .  A
O173       Ti177   2.140       .  S
O174        C181   1.288       .  A
O176       Ti183   2.159   1_556  S
Ti177       O184   2.168       .  S
Ti177       O179   2.172       .  S
C181        C448   1.527       .  S
O185       Ti203   2.168       .  S
O185       Ti202   2.148       .  S
O186        C187   1.282       .  A
O186       Ti194   2.188       .  S
C187        C456   1.510       .  S
C187        O223   1.267       .  A
O188        C221   1.258   1_455  A
O188       Ti225   2.053       .  S
O189       Ti225   2.172   1_655  S
O189       Ti203   2.166       .  S
C190        O205   1.274       .  A
C190        O238   1.258       .  A
C190        C348   1.402       .  S
O191        C193   1.278       .  A
O191       Ti194   2.153       .  S
C192        C444   1.519       .  S
C192        O227   1.278       .  A
C192        O213   1.282       .  A
C193        O206   1.256   1_554  A
C193        C345   1.408   1_554  S
Ti194       O207   2.150       .  S
Ti194       O210   2.163       .  S
Ti194       O196   2.171       .  S
Ti194       O213   2.184       .  S
Ti195       O240   2.169       .  S
Ti195       O235   2.162       .  S
Ti195       O214   2.141   1_554  S
Ti195       O212   2.119       .  S
Ti195       O209   2.194   1_554  S
Ti195       O218   2.180   1_554  S
O196       Ti202   2.162   1_554  S
O197       Ti239   2.157       .  S
O197       Ti201   2.167       .  S
C198        C419   1.521       .  S
C198        O218   1.280       .  A
C198        O222   1.277       .  A
O199       Ti233   2.145   1_655  S
O199       Ti239   2.158       .  S
C200        C371   1.513       .  S
C200        O226   1.268       .  A
C200        O232   1.279       .  A
Ti201       O216   2.163       .  S
Ti201       O207   2.132       .  S
Ti201       O238   2.077       .  S
Ti201       O227   2.169       .  S
Ti201       O223   2.141       .  S
Ti202       O210   2.163   1_556  S
Ti202       O230   2.153       .  S
Ti202       O206   2.059       .  S
Ti202       O217   2.169       .  S
Ti203       O208   2.175       .  S
Ti203       O234   2.205       .  S
Ti203       O228   2.178       .  S
Ti203       O231   2.151       .  S
O204        C220   1.281       .  A
O204       Ti239   2.181   1_455  S
O205       Ti239   2.125       .  S
O208       Ti225   2.166   1_655  S
O209        C224   1.283       .  A
O211        C220   1.275       .  A
O211       Ti233   2.160       .  S
O212        C215   1.274       .  A
O214       Ti225   2.131       .  S
C215        O229   1.257       .  A
C215        C343   1.400       .  S
O216       Ti239   2.173       .  S
O217        C219   1.276       .  A
C219        C395   1.530       .  S
C219        O234   1.286       .  A
C220        C431   1.514       .  S
C221        O231   1.279       .  A
C221        C349   1.403       .  S
O222       Ti225   2.177       .  S
C224        C383   1.537       .  S
C224        O236   1.280       .  A
Ti225       O236   2.198       .  S
O226       Ti233   2.145       .  S
O228        C237   1.279       .  A
O229       Ti233   2.077       .  S
O230        C237   1.269       .  A
O232       Ti239   2.184   1_455  S
Ti233       O240   2.158       .  S
Ti233       O235   2.170       .  S
C237        C407   1.511       .  S
N241        C246   1.341       .  A
N241        C245   1.345   1_655  A
N241        H273   1.046       .  S
N242        C249   1.342       .  A
N242        C250   1.343       .  A
N243        C248   1.333       .  A
N243        C247   1.344   1_655  A
N243        H274   1.046       .  S
N244        C251   1.336       .  A
N244        C252   1.333       .  A
C245        C253   1.380       .  A
C245        C261   1.379       .  A
C246        C262   1.414       .  A
C246        C254   1.394       .  A
C247        C255   1.382       .  A
C247        C264   1.389       .  A
C248        C263   1.392       .  A
C248        C256   1.391   1_655  A
C249        C261   1.396       .  A
C249        C257   1.386       .  A
C250        C264   1.400       .  A
C250        C258   1.392       .  A
C251        C259   1.393       .  A
C251        C262   1.407       .  A
C252        C260   1.387       .  A
C252        C263   1.395       .  A
C253        C254   1.377   1_455  A
C253        H265   1.083       .  S
C254        H266   1.082       .  S
C255        C256   1.383       .  A
C255        H267   1.082       .  S
C256        H268   1.082       .  S
C257        C258   1.376       .  A
C257        H269   1.083       .  S
C258        H270   1.083       .  S
C259        C260   1.377       .  A
C259        H271   1.083       .  S
C260        H272   1.083       .  S
C261        C365   1.433   1_455  S
C262        C347   1.419       .  S
C263        C363   1.404       .  S
C264        C350   1.430       .  S
N275        C280   1.343   1_545  A
N275        C279   1.339       .  A
N275        H307   1.046       .  S
N276        C283   1.338       .  A
N276        C284   1.341       .  A
N277        C282   1.344   1_545  A
N277        C281   1.334       .  A
N277        H308   1.045       .  S
N278        C285   1.345       .  A
N278        C286   1.343       .  A
C279        C287   1.395   1_545  A
C279        C295   1.405       .  A
C280        C296   1.377       .  A
C280        C288   1.376       .  A
C281        C289   1.391   1_545  A
C281        C298   1.395       .  A
C282        C297   1.398       .  A
C282        C290   1.383       .  A
C283        C295   1.399       .  A
C283        C291   1.385       .  A
C284        C298   1.403       .  A
C284        C292   1.392       .  A
C285        C293   1.389       .  A
C285        C296   1.405       .  A
C286        C294   1.384       .  A
C286        C297   1.393       .  A
C287        C288   1.376       .  A
C287        H299   1.080       .  S
C288        H300   1.082       .  S
C289        C290   1.387       .  A
C289        H301   1.082       .  S
C290        H302   1.082       .  S
C291        C292   1.380       .  A
C291        H303   1.082       .  S
C292        H304   1.083       .  S
C293        C294   1.376       .  A
C293        H305   1.080       .  S
C294        H306   1.082       .  S
C295        C356   1.420       .  S
C296        C359   1.444   1_565  S
C297        C357   1.436   1_565  S
C298        C361   1.416       .  S
N309        C314   1.349       .  A
N309        C313   1.349       .  A
N309        H341   1.044       .  S
N310        C317   1.336   1_554  A
N310        C318   1.336       .  A
N311        C316   1.333       .  A
N311        C315   1.336       .  A
N311        H342   1.042       .  S
N312        C319   1.340       .  A
N312        C320   1.341   1_556  A
C313        C321   1.388       .  A
C313        C329   1.402       .  A
C314        C330   1.405       .  A
C314        C322   1.389       .  A
C315        C323   1.387       .  A
C315        C332   1.392       .  A
C316        C331   1.389       .  A
C316        C324   1.387       .  A
C317        C329   1.379       .  A
C317        C325   1.390       .  A
C318        C332   1.404       .  A
C318        C326   1.385       .  A
C319        C327   1.389       .  A
C319        C330   1.384       .  A
C320        C328   1.385   1_554  A
C320        C331   1.403       .  A
C321        C322   1.374       .  A
C321        H333   1.083       .  S
C322        H334   1.083       .  S
C323        C324   1.383       .  A
C323        H335   1.082       .  S
C324        H336   1.082       .  S
C325        C326   1.380   1_556  A
C325        H337   1.082       .  S
C326        H338   1.082       .  S
C327        C328   1.379       .  A
C327        H339   1.083       .  S
C328        H340   1.082   1_556  S
C329        C351   1.435       .  S
C330        C346   1.430       .  S
C331        C354   1.410       .  S
C332        C344   1.408       .  S
C343        C344   1.183       .  T
C345        C346   1.195       .  T
C347        C348   1.187       .  T
C349        C350   1.193   1_655  T
C351        C352   1.195   1_556  T
C353        C354   1.185       .  T
C355        C356   1.190       .  T
C357        C358   1.198       .  T
C359        C360   1.202       .  T
C361        C362   1.187       .  T
C363        C364   1.177       .  T
C365        C366   1.196       .  T
C367        C368   1.363       .  D
C367        H369   1.087       .  S
C368        H370   1.084       .  S
C371        C372   1.370       .  D
C371        H373   1.083       .  S
C372        H374   1.086       .  S
C375        C376   1.368       .  D
C375        H377   1.086       .  S
C376        H378   1.084       .  S
C379        C380   1.356       .  D
C379        H381   1.087       .  S
C380        H382   1.085       .  S
C383        C384   1.376       .  D
C383        H385   1.084       .  S
C384        H386   1.086       .  S
C387        C388   1.377       .  D
C387        H389   1.086       .  S
C388        H390   1.083       .  S
C391        C392   1.361       .  D
C391        H393   1.086       .  S
C392        H394   1.085       .  S
C395        C396   1.374       .  D
C395        H397   1.084       .  S
C396        H398   1.086       .  S
C399        C400   1.370       .  D
C399        H401   1.087       .  S
C400        H402   1.085       .  S
C403        C404   1.353       .  D
C403        H405   1.087       .  S
C404        H406   1.085       .  S
C407        C408   1.373       .  D
C407        H409   1.081       .  S
C408        H410   1.086       .  S
C411        C412   1.362       .  D
C411        H413   1.084       .  S
C412        H414   1.087       .  S
C415        C416   1.376       .  D
C415        H417   1.086       .  S
C416        H418   1.084       .  S
C419        C420   1.370       .  D
C419        H421   1.083       .  S
C420        H422   1.086       .  S
C423        C424   1.369       .  D
C423        H425   1.086       .  S
C424        H426   1.084       .  S
C427        C428   1.367       .  D
C427        H429   1.086       .  S
C428        H430   1.084       .  S
C431        C432   1.365       .  D
C431        H433   1.084       .  S
C432        H434   1.087       .  S
C435        C436   1.357       .  D
C435        H437   1.084       .  S
C436        H438   1.087       .  S
C439        C440   1.352       .  D
C439        H441   1.087       .  S
C440        H442   1.085       .  S
C443        C444   1.362       .  D
C443        H445   1.087       .  S
C444        H446   1.085       .  S
C447        C448   1.373       .  D
C447        H449   1.086       .  S
C448        H450   1.084       .  S
C451        C452   1.361       .  D
C451        H453   1.086       .  S
C452        H454   1.084       .  S
C455        C456   1.375       .  D
C455        H457   1.086       .  S
C456        H458   1.081       .  S
C459        C460   1.349       .  D
C459        H461   1.085       .  S
C460        H462   1.087       .  S
