geometry optimzed in LAMMPS
_audit_creation_date              2020-12-01 
_audit_creation_method            'lammps2cif' 
_symmetry_space_group_name_H-M    'P1' 
_symmetry_Int_Tables_number       1 
_symmetry_cell_setting            triclinic 
loop_ 
_symmetry_equiv_pos_as_xyz 
  x,y,z 
_cell_length_a                    60.70405644 
_cell_length_b                    60.70464047142648 
_cell_length_c                    38.7922670627047 
_cell_angle_alpha                 89.7212782752139 
_cell_angle_beta                  89.94883640479172 
_cell_angle_gamma                 119.99613640076858 
loop_ 
_atom_site_label 
_atom_site_type_symbol 
_atom_site_fract_x 
_atom_site_fract_y 
_atom_site_fract_z 
_atom_site_charge 
O1          O  0.41402088  0.39784018  0.31781137    -0.73700
O2          O  0.34957343  0.33638674  0.31597717    -0.73700
O3          O  0.37501798  0.37701807  0.27291845    -0.73800
O4          O  0.38912297  0.35783270  0.36103293    -0.73800
O5          O  0.37118753  0.37744188  0.38692669    -0.73800
O6          O  0.35668099  0.39636327  0.29933246    -0.73700
O7          O  0.33149764  0.35569428  0.34224561    -0.73700
O8          O  0.39591915  0.41762559  0.34353161    -0.73800
Ni9        Ni  0.38245132  0.36644341  0.31601839     1.25400
Ni10       Ni  0.36308685  0.38736861  0.34398073     1.25400
C11         C  0.41552410  0.41788408  0.33074995     0.88500
C12         C  0.32976378  0.33565130  0.32867077     0.88400
C13         C  0.36422195  0.39052665  0.27186698     0.88400
C14         C  0.38335822  0.36532372  0.38873489     0.88600
O15         O  0.08213154  0.10190463  0.31441800    -0.73700
O16         O  0.14300824  0.16703220  0.31488184    -0.73700
O17         O  0.12337669  0.12583409  0.27293093    -0.73800
O18         O  0.10170301  0.14277401  0.35641522    -0.73800
O19         O  0.12046198  0.12578009  0.38692280    -0.73800
O20         O  0.14342141  0.11007257  0.30308494    -0.73700
O21         O  0.16227089  0.15076394  0.34604057    -0.73700
O22         O  0.10189002  0.08527267  0.34403493    -0.73800
Ni23       Ni  0.11192797  0.13500424  0.31355997     1.25400
Ni24       Ni  0.13277709  0.11745059  0.34611651     1.25400
C25         C  0.08208935  0.08290053  0.32891902     0.88500
C26         C  0.16258478  0.16977396  0.33111509     0.88400
C27         C  0.13666778  0.11483471  0.27392735     0.88400
C28         C  0.10689762  0.13657279  0.38557756     0.88600
O29         O  0.47305339  0.39409612  0.68201833    -0.73700
O30         O  0.47591616  0.33251106  0.68032422    -0.73700
O31         O  0.49193674  0.37225465  0.72447535    -0.73800
O32         O  0.45689501  0.35476362  0.63782098    -0.73800
O33         O  0.99383235  0.37523013  0.61012187    -0.73800
O34         O  0.02896319  0.39177354  0.69655538    -0.73700
O35         O  0.01250100  0.35236414  0.65196782    -0.73700
O36         O  0.01019992  0.41423075  0.65498915    -0.73800
Ni37       Ni  0.47312712  0.36259121  0.68211064     1.25400
Ni38       Ni  0.01267627  0.38403424  0.65239574     1.25400
C39         C  0.49134075  0.41452957  0.66919543     0.88500
C40         C  0.49466818  0.33206998  0.66594537     0.88400
C41         C  0.01623237  0.38528813  0.72474939     0.88400
C42         C  0.46954450  0.36266718  0.60964046     0.88600
O43         O  0.01938122  0.10486666  0.68659607    -0.73700
O44         O  0.02171938  0.16904790  0.67964603    -0.73700
O45         O  0.00407507  0.13078901  0.72721662    -0.73800
O46         O  0.03730664  0.14285862  0.63910127    -0.73800
O47         O  0.49955578  0.12333620  0.61326196    -0.73800
O48         O  0.46649956  0.11225307  0.70140011    -0.73700
O49         O  0.48428674  0.15004171  0.65325090    -0.73700
O50         O  0.48157414  0.08593870  0.66129408    -0.73800
Ni51       Ni  0.02197692  0.13765875  0.68404435     1.25400
Ni52       Ni  0.48165482  0.11732797  0.65637176     1.25400
C53         C  0.99996001  0.08476884  0.67525110     0.88500
C54         C  0.00334135  0.17014558  0.66505943     0.88400
C55         C  0.47981725  0.11895578  0.72900014     0.88400
C56         C  0.02385791  0.13434414  0.61178049     0.88600
O57         O  0.41658260  0.01862824  0.01986102    -0.73700
O58         O  0.35673911  0.02504019  0.01884266    -0.73700
O59         O  0.37668037  0.00451477  0.06265921    -0.73800
O60         O  0.39722651  0.03936173  0.97580787    -0.73800
O61         O  0.37964141  0.50635980  0.94029547    -0.73800
O62         O  0.35700418  0.46731691  0.02395514    -0.73700
O63         O  0.33633589  0.48635585  0.97896951    -0.73700
O64         O  0.39951765  0.48692619  0.98473786    -0.73800
Ni65       Ni  0.38747967  0.02321388  0.02021223     1.25400
Ni66       Ni  0.36742315  0.48548443  0.98092076     1.25400
C67         C  0.41571290  0.99875156  0.00711175     0.88500
C68         C  0.33649521  0.00763627  0.00453841     0.88400
C69         C  0.36234362  0.47880407  0.05303817     0.88400
C70         C  0.39081392  0.02676161  0.94760293     0.88600
O71         O  0.08082746  0.47974323  0.01262476    -0.73700
O72         O  0.14299752  0.47763557  0.01374707    -0.73700
O73         O  0.12059230  0.49616565  0.05653820    -0.73800
O74         O  0.10267236  0.46114037  0.97010535    -0.73200
O75         O  0.12137315  0.99435356  0.94883993    -0.73800
O76         O  0.13984657  0.03283291  0.03205593    -0.73700
O77         O  0.16285931  0.01480075  0.99038215    -0.73700
O78         O  0.09848023  0.01227334  0.99059682    -0.73800
Ni79       Ni  0.11116012  0.47734850  0.01428409     1.25400
Ni80       Ni  0.13127597  0.01480802  0.98938275     1.25400
C81         C  0.07935716  0.99377177  0.00567920     0.88500
C82         C  0.16529193  0.99749229  0.00606531     0.88400
C83         C  0.13412781  0.02123907  0.06112822     0.88400
C84         C  0.10847163  0.47384226  0.94177827     0.88600
C85         C  0.01255829  0.48306266  0.98217585    -0.11100
C86         C  0.00768696  0.99203323  0.00969687     0.11400
C87         C  0.01891225  0.98933074  0.04024405    -0.03000
C88         C  0.04222689  0.98965972  0.03773316    -0.05700
C89         C  0.05449533  0.99277089  0.00587899    -0.16500
C90         C  0.03446172  0.48071140  0.98168813     0.02500
C91         C  0.48439409  0.99427565  0.01018425     0.12400
C92         C  0.00637695  0.98620066  0.07522643     0.63000
H93         H  0.05134559  0.98794829  0.06077151     0.12400
C94         C  0.03404053  0.45860334  0.96291675     0.55200
H95         H  0.49515357  0.46868928  0.97048165     0.08200
C96         C  0.48076147  0.51360661  0.96890321    -0.05600
C97         C  0.45787229  0.51405398  0.97136134    -0.06300
C98         C  0.43875601  0.99612377  0.00840359    -0.15900
C99         C  0.43784556  0.97254193  0.01442869    -0.01500
C100        C  0.46081951  0.97207194  0.01469103    -0.09000
C101        C  0.49601521  0.52174040  0.93558010     0.65200
H102        H  0.45131165  0.52062652  0.94977337     0.10700
C103        C  0.41301004  0.94808775  0.02159420     0.63600
H104        H  0.46059836  0.95425150  0.01822513     0.08000
F105        F  0.05308531  0.46780214  0.93823504    -0.19400
F106        F  0.01109371  0.44360663  0.94643853    -0.15600
F107        F  0.03776472  0.44337387  0.98601362    -0.19100
F108        F  0.98336751  0.96369124  0.07615812    -0.22500
F109        F  0.00220742  0.00626118  0.08118549    -0.24000
F110        F  0.02129658  0.98552453  0.10173160    -0.18000
F111        F  0.41708664  0.92855615  0.03196772    -0.20500
F112        F  0.39835580  0.94031115  0.99209483    -0.21600
F113        F  0.39975706  0.95196018  0.04765883    -0.18800
F114        F  0.48553033  0.53077472  0.91157770    -0.18900
F115        F  0.49656143  0.50119604  0.92132147    -0.22700
F116        F  0.52063987  0.54083170  0.94192275    -0.24300
C117        C  0.21379282  0.47523025  0.00374680    -0.11100
C118        C  0.24100632  0.00708119  0.00806187     0.11400
C119        C  0.23718658  0.02750372  0.99908032    -0.03000
C120        C  0.21225412  0.02346754  0.99931766    -0.05700
C121        C  0.19094312  0.99957458  0.00725160    -0.16500
C122        C  0.18961662  0.47317419  0.00576160     0.02500
C123        C  0.26660617  0.00947721  0.00770601     0.12400
C124        C  0.25929889  0.05329292  0.98856475     0.63000
H125        H  0.20928829  0.03917460  0.99295790     0.12400
C126        C  0.16675647  0.44750702  0.01493529     0.55200
H127        H  0.21590098  0.45879846  0.00873421     0.08200
C128        C  0.27438613  0.50212637  0.02665700    -0.05600
C129        C  0.29851873  0.50423580  0.02456298    -0.06300
C130        C  0.31314435  0.00958682  0.00435016    -0.15900
C131        C  0.29954639  0.00738178  0.97365831    -0.01500
C132        C  0.27626014  0.00705630  0.97599664    -0.09000
C133        C  0.26330476  0.50259865  0.06159184     0.65200
H134        H  0.30929371  0.50654677  0.04780731     0.10700
C135        C  0.30986727  0.00607891  0.93850899     0.63600
H136        H  0.26511680  0.00451186  0.95303182     0.08000
F137        F  0.15661764  0.44910609  0.04614387    -0.19400
F138        F  0.17318431  0.42868582  0.01815809    -0.15600
F139        F  0.14854305  0.44007535  0.98940903    -0.19100
F140        F  0.27017093  0.05094752  0.95850386    -0.22500
F141        F  0.27749611  0.06261524  0.01416149    -0.24000
F142        F  0.25161154  0.07095778  0.98274418    -0.18000
F143        F  0.30952701  0.98326505  0.93507864    -0.20500
F144        F  0.33456714  0.02597816  0.93483652    -0.21600
F145        F  0.29556629  0.00788469  0.91201675    -0.18800
F146        F  0.28012517  0.50660351  0.08811500    -0.18900
F147        F  0.24143032  0.47957958  0.06758101    -0.22700
F148        F  0.25744484  0.52185705  0.06245083    -0.24300
C149        C  0.43012537  0.09563081  0.80127989    -0.11100
C150        C  0.44131829  0.08693348  0.82537599     0.11400
C151        C  0.46640480  0.09177548  0.81959589    -0.03000
C152        C  0.47892519  0.10402239  0.78882261    -0.05700
C153        C  0.46703513  0.11096575  0.76334400    -0.16500
C154        C  0.44279345  0.10811525  0.77056441     0.02500
C155        C  0.42602491  0.07169207  0.85563483     0.12400
C156        C  0.47966673  0.08339939  0.84537521     0.63000
H157        H  0.49780274  0.10717783  0.78376561     0.12400
C158        C  0.43065353  0.11891810  0.74676993     0.55200
H159        H  0.41103975  0.09198214  0.80631224     0.08200
C160        C  0.42286343  0.08299602  0.88558658    -0.05600
C161        C  0.41041419  0.06739968  0.91434270    -0.06300
C162        C  0.40086328  0.04090112  0.91417709    -0.15900
C163        C  0.40280169  0.02946604  0.88312039    -0.01500
C164        C  0.41521627  0.04521322  0.85440456    -0.09000
C165        C  0.43274681  0.11142130  0.88721983     0.65200
H166        H  0.40832611  0.07603336  0.93756666     0.10700
C167        C  0.39270272  0.00104308  0.88004506     0.63600
H168        H  0.41735284  0.03705491  0.83071358     0.08000
F169        F  0.44838754  0.14363735  0.73758905    -0.19400
F170        F  0.41045979  0.11942254  0.76261306    -0.15600
F171        F  0.42160618  0.10424570  0.71746956    -0.19100
F172        F  0.46719575  0.05715591  0.84731557    -0.22500
F173        F  0.47968073  0.09302820  0.87759856    -0.24000
F174        F  0.50468746  0.09185908  0.83610173    -0.18000
F175        F  0.39768471  0.99457415  0.84795364    -0.20500
F176        F  0.36660805  0.98793891  0.88471775    -0.21600
F177        F  0.40407970  0.99331463  0.90444724    -0.18800
F178        F  0.42882294  0.11873368  0.91934183    -0.18900
F179        F  0.42027867  0.11805893  0.86314497    -0.22700
F180        F  0.45856064  0.12474672  0.88034442    -0.24300
C181        C  0.06470166  0.40469124  0.79732941    -0.11100
C182        C  0.05634506  0.41734568  0.81928751     0.11400
C183        C  0.03389500  0.41796543  0.81120395    -0.03000
C184        C  0.02087566  0.40635635  0.78064970    -0.05700
C185        C  0.02970090  0.39447378  0.75800652    -0.16500
C186        C  0.05151226  0.39286512  0.76687664     0.02500
C187        C  0.07205772  0.43095095  0.84975468     0.12400
C188        C  0.02391584  0.43112190  0.83454047     0.63000
H189        H  0.00410842  0.40728132  0.77352453     0.12400
C190        C  0.06041020  0.37817005  0.74487062     0.55200
H191        H  0.08194156  0.40453664  0.80397725     0.08200
C192        C  0.07053991  0.41841727  0.88116114    -0.05600
C193        C  0.08369936  0.43314507  0.90994514    -0.06300
C194        C  0.09828291  0.45995949  0.90844033    -0.15900
C195        C  0.10095966  0.47228020  0.87594374    -0.01500
C196        C  0.08797938  0.45731333  0.84720064    -0.09000
C197        C  0.05490617  0.38963129  0.88424099     0.65200
H198        H  0.08208688  0.42360298  0.93425383     0.10700
C199        C  0.12210968  0.99485514  0.87694256     0.63600
H200        H  0.08919881  0.46620403  0.82243133     0.08000
F201        F  0.07915752  0.37537149  0.76116313    -0.19400
F202        F  0.07023290  0.39080989  0.71401507    -0.15600
F203        F  0.04017670  0.35411893  0.73833918    -0.19100
F204        F  0.04125342  0.45686785  0.83595741    -0.22500
F205        F  0.01996647  0.42094824  0.86743565    -0.24000
F206        F  0.50105340  0.42812472  0.82286769    -0.18000
F207        F  0.12542032  0.00058992  0.84205305    -0.20500
F208        F  0.14577736  0.00176476  0.89042994    -0.21600
F209        F  0.11272471  0.00922805  0.89164990    -0.18800
F210        F  0.05501425  0.38127937  0.91748036    -0.18900
F211        F  0.06483318  0.37872925  0.86258128    -0.22700
F212        F  0.02993903  0.38124060  0.87518009    -0.24300
C213        C  0.98040619  0.26315602  0.67688117    -0.11100
C214        C  0.50303764  0.26524041  0.66435968     0.11400
C215        C  0.52219690  0.28863836  0.65069376    -0.03000
C216        C  0.51866925  0.30982912  0.65215238    -0.05700
C217        C  0.49623442  0.30817822  0.66554916    -0.16500
C218        C  0.97635619  0.28404319  0.67756072     0.02500
C219        C  0.00504203  0.24193982  0.66417677     0.12400
C220        C  0.54591190  0.29099440  0.63384267     0.63000
H221        H  0.53357213  0.32792293  0.64239489     0.12400
C222        C  0.95085431  0.27966849  0.69075137     0.55200
H223        H  0.96585479  0.24469088  0.68620373     0.08200
C224        C  0.01316486  0.23398991  0.69347533    -0.05600
C225        C  0.01313801  0.21082789  0.69205055    -0.06300
C226        C  0.00391856  0.19485786  0.66318723    -0.15900
C227        C  0.49522731  0.20260600  0.63421685    -0.01500
C228        C  0.49629949  0.22629053  0.63518478    -0.09000
C229        C  0.02079281  0.24936600  0.72653756     0.65200
H230        H  0.01934498  0.20445728  0.71419682     0.10700
C231        C  0.48477510  0.18619654  0.60229686     0.63600
H232        H  0.48950555  0.23256255  0.61355828     0.08000
F233        F  0.93427256  0.25434514  0.69866499    -0.19400
F234        F  0.93935205  0.28677385  0.66577105    -0.15600
F235        F  0.95432872  0.29354162  0.72043705    -0.19100
F236        F  0.53906874  0.27500293  0.60574450    -0.22500
F237        F  0.55893310  0.28436632  0.65697688    -0.24000
F238        F  0.56232161  0.31553770  0.62242332    -0.18000
F239        F  0.48071848  0.19902510  0.57567836    -0.20500
F240        F  0.46172077  0.16481165  0.61000329    -0.21600
F241        F  0.50175725  0.17895196  0.59067694    -0.18800
F242        F  0.02837457  0.23835536  0.75174712    -0.18900
F243        F  0.00036099  0.25094489  0.73929327    -0.22700
F244        F  0.04073444  0.27363616  0.72029330    -0.24300
C245        C  0.47693570  0.46761302  0.69219963    -0.11100
C246        C  0.99548466  0.48776595  0.67260923     0.11400
C247        C  0.01228178  0.48388593  0.65171396    -0.03000
C248        C  0.00978521  0.45962944  0.65112620    -0.05700
C249        C  0.49117651  0.43907920  0.67064821    -0.16500
C250        C  0.47398006  0.44308154  0.69126277     0.02500
C251        C  0.49679421  0.01231337  0.67501600     0.12400
C252        C  0.04357998  0.01075022  0.65626321     0.63000
H253        H  0.02275605  0.45666887  0.63526689     0.12400
C254        C  0.45256432  0.42201968  0.71227136     0.55200
H255        H  0.46453582  0.47138843  0.70814992     0.08200
C256        C  0.48596935  0.01929777  0.64785242    -0.05600
C257        C  0.48699334  0.04288200  0.64957811    -0.06300
C258        C  0.99894714  0.05984144  0.67687493    -0.15900
C259        C  0.00922303  0.05241974  0.70451696    -0.01500
C260        C  0.00742655  0.02844454  0.70325007    -0.09000
C261        C  0.45906993  0.49776370  0.63360298     0.65200
H262        H  0.47874738  0.04848939  0.62901511     0.10700
C263        C  0.02149928  0.06921747  0.73560416     0.63600
H264        H  0.01495265  0.02221386  0.72406202     0.08000
F265        F  0.43596056  0.40287316  0.69058013    -0.19400
F266        F  0.43859072  0.43061478  0.73015737    -0.15600
F267        F  0.46245442  0.41234820  0.73617811    -0.19100
F268        F  0.05250212  0.02753842  0.68351697    -0.22500
F269        F  0.03947372  0.02244951  0.62832598    -0.24000
F270        F  0.04604057  0.49709770  0.60994436    -0.18000
F271        F  0.02675212  0.05665273  0.76135260    -0.20500
F272        F  0.00527083  0.07672145  0.74921309    -0.21600
F273        F  0.04418619  0.09038639  0.72601258    -0.18800
F274        F  0.46569729  0.01326376  0.59262279    -0.18900
F275        F  0.44172693  0.47879651  0.65515784    -0.22700
F276        F  0.46854411  0.48731964  0.61041892    -0.24300
C277        C  0.06556623  0.14596076  0.45240263    -0.11100
C278        C  0.07683531  0.14450032  0.48312547     0.11400
C279        C  0.09883391  0.14210744  0.48184646    -0.03000
C280        C  0.10855780  0.14074636  0.44944682    -0.05700
C281        C  0.09685477  0.14130858  0.41834202    -0.16500
C282        C  0.07519353  0.14464812  0.41986899     0.02500
C283        C  0.06352242  0.14285302  0.51608859     0.12400
C284        C  0.11153884  0.14022658  0.51460031     0.63000
H285        H  0.12515425  0.13852593  0.44830396     0.12400
C286        C  0.06157758  0.14614538  0.38780672     0.55200
H287        H  0.04858214  0.14747506  0.45429228     0.08200
C288        C  0.06583209  0.16450490  0.53312624    -0.05600
C289        C  0.05258742  0.16103351  0.56445147    -0.06300
C290        C  0.03668539  0.13668057  0.57831727    -0.15900
C291        C  0.03405233  0.11505899  0.56077491    -0.01500
C292        C  0.04741611  0.11856720  0.52975466    -0.09000
C293        C  0.08188945  0.19100512  0.51800126     0.65200
H294        H  0.05428133  0.17730180  0.57820787     0.10700
C295        C  0.01811061  0.08847695  0.57555240     0.63600
H296        H  0.04562295  0.10228962  0.51590204     0.08000
F297        F  0.07795681  0.16718762  0.36827210    -0.19400
F298        F  0.04064015  0.14853299  0.39583614    -0.15600
F299        F  0.05307637  0.12426655  0.36853672    -0.19100
F300        F  0.09534376  0.11801154  0.53209068    -0.22500
F301        F  0.11741907  0.16070923  0.53569039    -0.24000
F302        F  0.13385667  0.14010796  0.50765749    -0.18000
F303        F  0.99298355  0.08242561  0.57803863    -0.20500
F304        F  0.02715799  0.08748545  0.60784432    -0.21600
F305        F  0.01907488  0.07027095  0.55525810    -0.18800
F306        F  0.08240517  0.20946991  0.53933753    -0.18900
F307        F  0.07197766  0.19255093  0.48661038    -0.22700
F308        F  0.10662244  0.19629428  0.51316223    -0.24300
C309        C  0.14053958  0.09927458  0.17915599    -0.11100
C310        C  0.14817120  0.08115987  0.18291484     0.11400
C311        C  0.15646653  0.07759318  0.21533911    -0.03000
C312        C  0.15338923  0.08979918  0.24419766    -0.05700
C313        C  0.14313550  0.10610267  0.24131105    -0.16500
C314        C  0.13818290  0.11221927  0.20765361     0.02500
C315        C  0.14507699  0.06475091  0.15294864     0.12400
C316        C  0.16842888  0.06093064  0.21918883     0.63000
H317        H  0.15832761  0.08597029  0.26944634     0.12400
C318        C  0.13010623  0.13187890  0.20112729     0.55200
H319        H  0.13518280  0.10224042  0.15365142     0.08200
C320        C  0.12127809  0.04295895  0.14576741    -0.05600
C321        C  0.11897211  0.02873308  0.11618996    -0.06300
C322        C  0.13932032  0.03605762  0.09320317    -0.15900
C323        C  0.16327662  0.05766089  0.10058836    -0.01500
C324        C  0.16571882  0.07170650  0.13059061    -0.09000
C325        C  0.09821509  0.03521610  0.16875146     0.65200
H326        H  0.10077702  0.01223006  0.10992843     0.10700
C327        C  0.18619293  0.06556879  0.07730838     0.63600
H328        H  0.18367438  0.08859620  0.13653262     0.08000
F329        F  0.10542900  0.12270478  0.21254465    -0.19400
F330        F  0.13087401  0.13761399  0.16639121    -0.15600
F331        F  0.14639164  0.15425668  0.21794115    -0.19100
F332        F  0.19013082  0.07068833  0.19900449    -0.22500
F333        F  0.15160446  0.03639655  0.20875653    -0.24000
F334        F  0.17527387  0.05994121  0.25294520    -0.18000
F335        F  0.20829312  0.08468102  0.09188234    -0.20500
F336        F  0.18324320  0.57455221  0.04618317    -0.21600
F337        F  0.18818622  0.54286532  0.06843863    -0.18800
F338        F  0.07734417  0.01274674  0.15803797    -0.18900
F339        F  0.09161883  0.05395881  0.16812710    -0.22700
F340        F  0.10365422  0.03174810  0.20224639    -0.24300
C341        C  0.40426481  0.37060622  0.48321861    -0.11100
C342        C  0.41672289  0.35649109  0.48245851     0.11400
C343        C  0.41528201  0.34257589  0.45266997    -0.03000
C344        C  0.40319650  0.34516529  0.42323939    -0.05700
C345        C  0.39217520  0.36085834  0.42281310    -0.16500
C346        C  0.39182547  0.37306424  0.45406977     0.02500
C347        C  0.43135142  0.35706474  0.51344675     0.12400
C348        C  0.42667913  0.32528113  0.45196613     0.63000
H349        H  0.40279161  0.33521851  0.39998195     0.12400
C350        C  0.37902822  0.38905669  0.45723572     0.55200
H351        H  0.40505856  0.38033553  0.50690040     0.08200
C352        C  0.45623117  0.37743071  0.51950578    -0.05600
C353        C  0.46826296  0.37783255  0.55065957    -0.06300
C354        C  0.45609702  0.35887971  0.57611857    -0.15900
C355        C  0.43143255  0.33798258  0.56931035    -0.01500
C356        C  0.41942904  0.33766034  0.53809272    -0.09000
C357        C  0.46963440  0.39915714  0.49373596     0.65200
H358        H  0.48699655  0.39373007  0.55597899     0.10700
C359        C  0.41784722  0.31581950  0.59425854     0.63600
H360        H  0.40029361  0.32243061  0.53288750     0.08000
F361        F  0.39088748  0.41007172  0.43570513    -0.19400
F362        F  0.38025716  0.39784578  0.49045787    -0.15600
F363        F  0.35356867  0.37456292  0.44877759    -0.19100
F364        F  0.41528577  0.30663223  0.47703034    -0.22500
F365        F  0.45251630  0.33919157  0.45818848    -0.24000
F366        F  0.42311656  0.31336549  0.42045830    -0.18000
F367        F  0.40994016  0.32339023  0.62302078    -0.20500
F368        F  0.43406058  0.30710498  0.60403725    -0.21600
F369        F  0.89650048  0.29568187  0.57953394    -0.18800
F370        F  0.49450176  0.41585272  0.50324851    -0.18900
F371        F  0.45689443  0.41265976  0.49156620    -0.22700
F372        F  0.47015261  0.38978882  0.46152885    -0.24300
C373        C  0.48496301  0.46820168  0.34251551    -0.11100
C374        C  0.48554584  0.48909614  0.32601828     0.11400
C375        C  0.46328693  0.48635868  0.31029235    -0.03000
C376        C  0.44066228  0.46281748  0.31305818    -0.05700
C377        C  0.44000684  0.44195782  0.32976533    -0.16500
C378        C  0.46245210  0.44447788  0.34465122     0.02500
C379        C  0.01261119  0.01126765  0.32999169     0.12400
C380        C  0.47387997  0.99808239  0.27440284     0.63000
H381        H  0.42329911  0.46029805  0.30145230     0.12400
C382        C  0.46246915  0.42247089  0.36343227     0.55200
H383        H  0.00235421  0.47064919  0.35382699     0.08200
C384        C  0.01553284  0.03135200  0.35149066    -0.05600
C385        C  0.03864980  0.05454321  0.35039648    -0.06300
C386        C  0.05861772  0.05798337  0.32874399    -0.15900
C387        C  0.05569502  0.03800983  0.30712767    -0.01500
C388        C  0.03267173  0.01469949  0.30844261    -0.09000
C389        C  0.00039478  0.52347535  0.38671825     0.65200
H390        H  0.04140710  0.07022016  0.36657191     0.10700
C391        C  0.07656872  0.04167731  0.28220860     0.63600
H392        H  0.52993999  0.99899951  0.29253318     0.08000
F393        F  0.44364356  0.41283689  0.38844579    -0.19400
F394        F  0.48548939  0.42991248  0.37947180    -0.15600
F395        F  0.45811169  0.40347926  0.34028547    -0.19100
F396        F  0.49353719  0.00015825  0.25403970    -0.22500
F397        F  0.48002310  0.02193075  0.28616656    -0.24000
F398        F  0.43964261  0.50172261  0.27840647    -0.18000
F399        F  0.06933802  0.02034780  0.26215768    -0.20500
F400        F  0.09814051  0.04655300  0.30030460    -0.21600
F401        F  0.08230338  0.06196974  0.26041781    -0.18800
F402        F  0.00078677  0.05044349  0.39302852    -0.18900
F403        F  0.99869562  0.50210281  0.40214796    -0.22700
F404        F  0.97624830  0.51852516  0.37816224    -0.24300
C405        C  0.27572064  0.26693869  0.31380791    -0.11100
C406        C  0.25522163  0.26765550  0.32905942     0.11400
C407        C  0.25911097  0.29023102  0.34483009    -0.03000
C408        C  0.28355000  0.31191541  0.34342617    -0.05700
C409        C  0.30443650  0.31154050  0.32794178    -0.16500
C410        C  0.30037598  0.28830943  0.31301359     0.02500
C411        C  0.23032137  0.24367699  0.32987401     0.12400
C412        C  0.23769469  0.29118422  0.36383843     0.63000
H413        H  0.28651743  0.32928247  0.35522916     0.12400
C414        C  0.32154874  0.28537435  0.29662469     0.55200
H415        H  0.27212392  0.24909228  0.30281101     0.08200
C416        C  0.21398551  0.23501595  0.30097176    -0.05600
C417        C  0.19189265  0.21090694  0.30269190    -0.06300
C418        C  0.18588872  0.19525105  0.33208290    -0.15900
C419        C  0.20191994  0.20442725  0.36144475    -0.01500
C420        C  0.22409914  0.22841850  0.35950013    -0.09000
C421        C  0.22008980  0.25100423  0.26833296     0.65200
H422        H  0.17940481  0.20378132  0.28057668     0.10700
C423        C  0.19559912  0.18943100  0.39501085     0.63600
H424        H  0.23714845  0.23537654  0.38105171     0.08000
F425        F  0.31286976  0.26103620  0.28429443    -0.19400
F426        F  0.34011581  0.29014373  0.32083202    -0.15600
F427        F  0.33196298  0.30198030  0.26902572    -0.19100
F428        F  0.23024507  0.27499328  0.39202699    -0.22500
F429        F  0.21707843  0.28377091  0.34229685    -0.24000
F430        F  0.24507006  0.31538970  0.37559395    -0.18000
F431        F  0.21130974  0.20389695  0.42159496    -0.20500
F432        F  0.19860797  0.16847277  0.39095251    -0.21600
F433        F  0.17079309  0.18157305  0.40468963    -0.18800
F434        F  0.20093413  0.23967353  0.24410228    -0.18900
F435        F  0.24230869  0.25429166  0.25370168    -0.22700
F436        F  0.22310185  0.27456474  0.27598153    -0.24300
C437        C  0.33904932  0.40165936  0.18810815    -0.11100
C438        C  0.35919894  0.42570816  0.17857015     0.11400
C439        C  0.38112222  0.43794321  0.19967251    -0.03000
C440        C  0.38211378  0.42539827  0.22965887    -0.05700
C441        C  0.36210184  0.40130506  0.23888504    -0.16500
C442        C  0.34031932  0.38900488  0.21787988     0.02500
C443        C  0.35716049  0.43738543  0.14586999     0.12400
C444        C  0.40327686  0.46412894  0.19073325     0.63000
H445        H  0.39850553  0.43447750  0.24655095     0.12400
C446        C  0.31883896  0.36259452  0.22692176     0.55200
H447        H  0.32236586  0.39276681  0.17175757     0.08200
C448        C  0.36106003  0.42929650  0.11345836    -0.05600
C449        C  0.36023928  0.44210820  0.08368919    -0.06300
C450        C  0.35756020  0.46377765  0.08539691    -0.15900
C451        C  0.35266133  0.47126533  0.11787878    -0.01500
C452        C  0.35196650  0.45741520  0.14752711    -0.09000
C453        C  0.36714940  0.40794427  0.11038825     0.65200
H454        H  0.36314364  0.43602950  0.05875369     0.10700
C455        C  0.37731297  0.00711532  0.13492161     0.63600
H456        H  0.34839132  0.46277987  0.17261418     0.08000
F457        F  0.29944086  0.35378808  0.20292165    -0.19400
F458        F  0.30881772  0.36290593  0.25882306    -0.15600
F459        F  0.32804174  0.34585611  0.22801173    -0.19100
F460        F  0.39560142  0.48202245  0.19271048    -0.22500
F461        F  0.41190315  0.46418494  0.15771735    -0.24000
F462        F  0.42348571  0.47136332  0.21310210    -0.18000
F463        F  0.36088382  0.01431996  0.12093598    -0.20500
F464        F  0.40089204  0.02045036  0.11915716    -0.21600
F465        F  0.33903485  0.49428295  0.15412512    -0.18800
F466        F  0.37232354  0.40456523  0.07667705    -0.18900
F467        F  0.34673630  0.38532860  0.12178900    -0.22700
F468        F  0.38828269  0.41345420  0.13001607    -0.24300
O469        O  0.41738434  0.89639515  0.31995990    -0.73700
O470        O  0.35454318  0.83338849  0.32009021    -0.73700
O471        O  0.37672143  0.87504094  0.27777241    -0.73800
O472        O  0.39562841  0.85572364  0.36258202    -0.73800
O473        O  0.37728945  0.87363384  0.39165780    -0.73800
O474        O  0.35799777  0.89237862  0.30780370    -0.73700
O475        O  0.33601172  0.85085095  0.34975428    -0.73700
O476        O  0.39899355  0.91445195  0.34939817    -0.73800
Ni477      Ni  0.38659280  0.86437013  0.31901260     1.25400
Ni478      Ni  0.36682904  0.88334683  0.35071930     1.25400
C479        C  0.41850463  0.91570555  0.33469435     0.88500
C480        C  0.33478403  0.83145924  0.33475612     0.88400
C481        C  0.36481410  0.88754549  0.27896386     0.88400
C482        C  0.39036284  0.86244320  0.39137038     0.88600
O483        O  0.08320783  0.60383978  0.31097550    -0.73700
O484        O  0.14744885  0.66588550  0.31568535    -0.73700
O485        O  0.12557525  0.62598882  0.27141738    -0.73800
O486        O  0.10494955  0.64367058  0.35499604    -0.73800
O487        O  0.12101665  0.62385268  0.38530175    -0.73800
O488        O  0.14145160  0.60592194  0.30127228    -0.73700
O489        O  0.16343160  0.64581052  0.34549485    -0.73700
O490        O  0.09937319  0.58402189  0.34150331    -0.73800
Ni491      Ni  0.11477941  0.63559034  0.31217071     1.25400
Ni492      Ni  0.13195361  0.61424296  0.34444985     1.25400
C493        C  0.08083571  0.58375472  0.32547978     0.88500
C494        C  0.16601207  0.66621539  0.33192829     0.88400
C495        C  0.13633153  0.61249122  0.27219936     0.88400
C496        C  0.10923837  0.63646178  0.38399243     0.88600
O497        O  0.47802276  0.89579658  0.68773112    -0.73700
O498        O  0.48083404  0.83433327  0.68324450    -0.73700
O499        O  0.49553142  0.87234899  0.72988814    -0.73800
O500        O  0.46335143  0.85792296  0.64124506    -0.73800
O501        O  0.00125289  0.87902107  0.61582170    -0.73800
O502        O  0.03335243  0.89331515  0.70419739    -0.73700
O503        O  0.01867784  0.85538617  0.65792778    -0.73700
O504        O  0.01568707  0.91675185  0.66215141    -0.73800
Ni505      Ni  0.47808286  0.86431486  0.68644700     1.25400
Ni506      Ni  0.01859132  0.88683909  0.65914585     1.25400
C507        C  0.49628271  0.91648138  0.67543122     0.88500
C508        C  0.50026705  0.83461345  0.66997624     0.88400
C509        C  0.01977833  0.88530998  0.73159084     0.88400
C510        C  0.47701663  0.86621740  0.61392643     0.88600
O511        O  0.02572022  0.60816823  0.68402757    -0.73700
O512        O  0.02871891  0.67282169  0.67669777    -0.73700
O513        O  0.01112662  0.63459133  0.72456119    -0.73800
O514        O  0.04395993  0.64631813  0.63683171    -0.73800
O515        O  0.50617072  0.62703153  0.61100352    -0.73800
O516        O  0.47329453  0.61634535  0.69904931    -0.73700
O517        O  0.49118302  0.65383640  0.65074225    -0.73700
O518        O  0.48785999  0.58978476  0.65914759    -0.73800
Ni519      Ni  0.02874709  0.64125243  0.68147000     1.25400
Ni520      Ni  0.48831313  0.62119893  0.65405290     1.25400
C521        C  0.00605498  0.58815443  0.67289921     0.88500
C522        C  0.01039150  0.67400906  0.66197672     0.88400
C523        C  0.48689177  0.62283998  0.72638028     0.88400
C524        C  0.03045784  0.63799086  0.60962491     0.88600
O525        O  0.41624158  0.52286690  0.01501872    -0.73700
O526        O  0.35253245  0.52194902  0.00974251    -0.73700
O527        O  0.37363646  0.50309764  0.05421685    -0.73800
O528        O  0.39584480  0.54202943  0.97042813    -0.73800
O529        O  0.37643926  0.00252074  0.94840708    -0.73800
O530        O  0.35548096  0.96757582  0.03572376    -0.73700
O531        O  0.33594317  0.98816299  0.99109233    -0.73700
O532        O  0.39540143  0.98152135  0.99289682    -0.73800
Ni533      Ni  0.38504350  0.52378681  0.01340800     1.25400
Ni534      Ni  0.36499173  0.98364894  0.99103537     1.25400
C535        C  0.41824100  0.50499283  0.00060040     0.88500
C536        C  0.33389410  0.50387749  0.99353737     0.88400
C537        C  0.36338706  0.98024646  0.06382766     0.88400
C538        C  0.39238443  0.53067531  0.94144459     0.88600
O539        O  0.08150790  0.97624513  0.02112328    -0.73700
O540        O  0.14607434  0.97906284  0.02107068    -0.73700
O541        O  0.12267361  0.99688620  0.06277881    -0.73800
O542        O  0.10455947  0.95837144  0.97885923    -0.73200
O543        O  0.12187723  0.49812965  0.94239322    -0.73800
O544        O  0.14092976  0.53326971  0.02862716    -0.73700
O545        O  0.16234894  0.51431598  0.98520582    -0.73700
O546        O  0.10082607  0.51726120  0.98556884    -0.73800
Ni547      Ni  0.11316133  0.97632748  0.02202312     1.25400
Ni548      Ni  0.13226763  0.51704901  0.98448469     1.25400
C549        C  0.08060218  0.49877456  0.99860530     0.88500
C550        C  0.16301877  0.49554152  0.99938737     0.88400
C551        C  0.13346019  0.52052782  0.05680809     0.88400
C552        C  0.10939151  0.97005599  0.94973236     0.88600
C553        C  0.01917288  0.99359426  0.97772988    -0.11100
C554        C  0.01266100  0.50399578  0.99745260     0.11400
C555        C  0.03504790  0.52315136  0.01325529    -0.03000
C556        C  0.05694656  0.52079494  0.01283343    -0.05700
C557        C  0.05681515  0.49976372  0.99778481    -0.16500
C558        C  0.04266607  0.99438133  0.97522019     0.02500
C559        C  0.48871498  0.50490451  0.99766459     0.12400
C560        C  0.03563991  0.54576784  0.03079021     0.63000
H561        H  0.07429898  0.53516546  0.02482726     0.12400
C562        C  0.05455016  0.99660534  0.93997933     0.55200
H563        H  0.50925073  0.99377063  0.95476951     0.08200
C564        C  0.48536217  0.01783911  0.00484042    -0.05600
C565        C  0.46245578  0.01831843  0.00414449    -0.06300
C566        C  0.44269101  0.50545635  0.00108583    -0.15900
C567        C  0.45021442  0.49598013  0.02933297    -0.01500
C568        C  0.47334927  0.49604698  0.02722966    -0.09000
C569        C  0.51050009  0.04240206  0.99989028     0.65200
H570        H  0.46287037  0.03614601  0.99965872     0.10700
C571        C  0.43321363  0.48470899  0.06065421     0.63600
H572        H  0.47951810  0.48880656  0.04848394     0.08000
F573        F  0.07661778  0.01987480  0.93687491    -0.19400
F574        F  0.03840096  0.99480706  0.91358554    -0.15600
F575        F  0.06012475  0.97729780  0.93581081    -0.19100
F576        F  0.01899362  0.53748461  0.05845382    -0.22500
F577        F  0.02857040  0.55856020  0.00778725    -0.24000
F578        F  0.05964646  0.56281596  0.04297599    -0.18000
F579        F  0.44406641  0.47662175  0.08541110    -0.20500
F580        F  0.41057728  0.46397641  0.05051732    -0.21600
F581        F  0.42840365  0.50257124  0.07542892    -0.18800
F582        F  0.50720000  0.06332959  0.99740014    -0.18900
F583        F  0.52223324  0.04126475  0.96995448    -0.22700
F584        F  0.52629356  0.04609569  0.02756494    -0.24300
C585        C  0.22001381  0.98321081  0.01572274    -0.11100
C586        C  0.23577803  0.49830273  0.99590021     0.11400
C587        C  0.23385277  0.52009965  0.98863559    -0.03000
C588        C  0.20983345  0.51819326  0.99051248    -0.05700
C589        C  0.18756763  0.49522173  0.99900580    -0.16500
C590        C  0.19493905  0.97889702  0.01547240     0.02500
C591        C  0.26072761  0.49921382  0.99584693     0.12400
C592        C  0.25712721  0.54527559  0.97879830     0.63000
H593        H  0.20839770  0.53497047  0.98531254     0.12400
C594        C  0.17319844  0.95222825  0.02331847     0.55200
H595        H  0.22357606  0.96782633  0.02178294     0.08200
C596        C  0.28062489  0.01263345  0.03827514    -0.05600
C597        C  0.30390464  0.01284993  0.03597428    -0.06300
C598        C  0.30887386  0.50262507  0.99295023    -0.15900
C599        C  0.29498874  0.49929057  0.96213793    -0.01500
C600        C  0.27099973  0.49756483  0.96421323    -0.09000
C601        C  0.27077671  0.01522000  0.07316929     0.65200
H602        H  0.31467784  0.01466591  0.05908014     0.10700
C603        C  0.30576205  0.49842580  0.92715712     0.63600
H604        H  0.26002762  0.49502025  0.94107564     0.08000
F605        F  0.16132171  0.95225049  0.05374910    -0.19400
F606        F  0.18156845  0.93491291  0.02717121    -0.15600
F607        F  0.15585338  0.94387823  0.99658495    -0.19100
F608        F  0.26731419  0.54261295  0.94828267    -0.22500
F609        F  0.27527774  0.55284913  0.00438711    -0.24000
F610        F  0.25127001  0.56439439  0.97415306    -0.18000
F611        F  0.30711842  0.47643994  0.92443481    -0.20500
F612        F  0.32982636  0.51936091  0.92321100    -0.21600
F613        F  0.29080335  0.49871475  0.90042954    -0.18800
F614        F  0.28794168  0.01933134  0.09926585    -0.18900
F615        F  0.24827623  0.99324359  0.08094340    -0.22700
F616        F  0.26644070  0.03550226  0.07267248    -0.24300
C617        C  0.44267595  0.60688213  0.80375484    -0.11100
C618        C  0.44907277  0.59103007  0.82250785     0.11400
C619        C  0.46900539  0.58722211  0.81069411    -0.03000
C620        C  0.48166479  0.59924767  0.78001123    -0.05700
C621        C  0.47455996  0.61414933  0.76042418    -0.16500
C622        C  0.45522721  0.61867354  0.77270767     0.02500
C623        C  0.43326740  0.57688109  0.85281577     0.12400
C624        C  0.47626001  0.56977327  0.82963270     0.63000
H625        H  0.49650368  0.59601685  0.77002974     0.12400
C626        C  0.44833216  0.63620582  0.75350279     0.55200
H627        H  0.42725338  0.60938105  0.81321286     0.08200
C628        C  0.43750829  0.58759947  0.88603521    -0.05600
C629        C  0.42298161  0.57205210  0.91379129    -0.06300
C630        C  0.40464366  0.54609975  0.90952173    -0.15900
C631        C  0.39998657  0.53575988  0.87555256    -0.01500
C632        C  0.41414001  0.55166180  0.84788005    -0.09000
C633        C  0.45750263  0.61523462  0.89207366     0.65200
H634        H  0.42653649  0.58008845  0.93941785     0.10700
C635        C  0.38084953  0.50809176  0.86787619     0.63600
H636        H  0.41118677  0.54422314  0.82189757     0.08000
F637        F  0.47002035  0.65947843  0.74779709    -0.19400
F638        F  0.43125713  0.64039106  0.77198999    -0.15600
F639        F  0.43736403  0.62564593  0.72221583    -0.19100
F640        F  0.45631588  0.54499820  0.82860035    -0.22500
F641        F  0.48193906  0.57713625  0.86361503    -0.24000
F642        F  0.49731867  0.57028990  0.81495341    -0.18000
F643        F  0.37820315  0.50323560  0.83283040    -0.20500
F644        F  0.35719186  0.50196300  0.88069286    -0.21600
F645        F  0.38883553  0.49246986  0.88256169    -0.18800
F646        F  0.45904284  0.62179056  0.92647949    -0.18900
F647        F  0.45150880  0.63094212  0.87334376    -0.22700
F648        F  0.48115384  0.61957134  0.88176007    -0.24300
C649        C  0.06675674  0.90074926  0.80524088    -0.11100
C650        C  0.05761852  0.91171627  0.82885856     0.11400
C651        C  0.03491799  0.91207337  0.82168038    -0.03000
C652        C  0.02241297  0.90195430  0.79029632    -0.05700
C653        C  0.03230918  0.89229554  0.76572164    -0.16500
C654        C  0.05438386  0.89086170  0.77364175     0.02500
C655        C  0.07359094  0.92533135  0.85903422     0.12400
C656        C  0.02452975  0.92403985  0.84646914     0.63000
H657        H  0.00547567  0.90275525  0.78389401     0.12400
C658        C  0.06481840  0.87888537  0.74905101     0.55200
H659        H  0.08423017  0.90087830  0.81122068     0.08200
C660        C  0.07172429  0.91324759  0.89092843    -0.05600
C661        C  0.08442175  0.92845483  0.91964226    -0.06300
C662        C  0.09969827  0.95518113  0.91701700    -0.15900
C663        C  0.10388597  0.96670367  0.88361757    -0.01500
C664        C  0.09037670  0.95143321  0.85543786    -0.09000
C665        C  0.05671872  0.88446495  0.89428040     0.65200
H666        H  0.08206522  0.91943345  0.94454595     0.10700
C667        C  0.11658808  0.50098660  0.87108765     0.63600
H668        H  0.09205113  0.95991555  0.83025023     0.08000
F669        F  0.08317652  0.87506586  0.76458397    -0.19400
F670        F  0.07578122  0.89457825  0.72074848    -0.15600
F671        F  0.04539993  0.85548890  0.73823638    -0.19100
F672        F  0.04160854  0.94977200  0.84941176    -0.22500
F673        F  0.02062418  0.91277466  0.87862827    -0.24000
F674        F  0.50141558  0.92076535  0.83559119    -0.18000
F675        F  0.11709267  0.50821840  0.83705166    -0.20500
F676        F  0.14147384  0.50967297  0.88097534    -0.21600
F677        F  0.10619626  0.51266604  0.89041816    -0.18800
F678        F  0.05691471  0.87646014  0.92769653    -0.18900
F679        F  0.06736945  0.87403665  0.87302245    -0.22700
F680        F  0.03169994  0.87525808  0.88476748    -0.24300
C681        C  0.99133842  0.76835873  0.68611362    -0.11100
C682        C  0.50847620  0.76824127  0.66205420     0.11400
C683        C  0.52168032  0.78908082  0.63934818    -0.03000
C684        C  0.51824776  0.81018218  0.64291359    -0.05700
C685        C  0.50169432  0.81086104  0.66783244    -0.16500
C686        C  0.98754532  0.78927988  0.68957235     0.02500
C687        C  0.01109495  0.74535627  0.66035341     0.12400
C688        C  0.53914772  0.78893073  0.61136013     0.63000
H689        H  0.52838947  0.82631998  0.62576282     0.12400
C690        C  0.96884319  0.78802999  0.71670811     0.55200
H691        H  0.98093885  0.75167659  0.70231893     0.08200
C692        C  0.02637705  0.74117363  0.68392767    -0.05600
C693        C  0.02623195  0.71796508  0.68270681    -0.06300
C694        C  0.01110292  0.69883155  0.65903691    -0.15900
C695        C  0.49655049  0.70362131  0.63449983    -0.01500
C696        C  0.49662174  0.72677567  0.63613484    -0.09000
C697        C  0.04198815  0.76074364  0.71109795     0.65200
H698        H  0.03723355  0.71422879  0.70137294     0.10700
C699        C  0.48105830  0.68488740  0.60633581     0.63600
H700        H  0.48484315  0.73047036  0.61877926     0.08000
F701        F  0.95905927  0.76602753  0.73642830    -0.19400
F702        F  0.94857616  0.78832240  0.70088881    -0.15600
F703        F  0.98086727  0.80846338  0.73882946    -0.19100
F704        F  0.52526560  0.76952533  0.58840323    -0.22500
F705        F  0.55787715  0.78526422  0.62581322    -0.24000
F706        F  0.55093006  0.81158078  0.59297417    -0.18000
F707        F  0.47249344  0.69568494  0.58211067    -0.20500
F708        F  0.45995607  0.66411407  0.62056113    -0.21600
F709        F  0.49586210  0.67698232  0.58916125    -0.18800
F710        F  0.05770906  0.75420993  0.72879828    -0.18900
F711        F  0.02591428  0.76261493  0.73464993    -0.22700
F712        F  0.05714839  0.78426734  0.69590201    -0.24300
C713        C  0.47470764  0.96586720  0.68464446    -0.11100
C714        C  0.99685190  0.98802200  0.67495683     0.11400
C715        C  0.01891080  0.98695837  0.66642285    -0.03000
C716        C  0.01771351  0.96326894  0.66732890    -0.05700
C717        C  0.49535065  0.94062718  0.67630438    -0.16500
C718        C  0.47318589  0.94196510  0.68505971     0.02500
C719        C  0.49702391  0.51282336  0.67428134     0.12400
C720        C  0.03286215  0.50536858  0.63024069     0.63000
H721        H  0.03464375  0.96241118  0.66099303     0.12400
C722        C  0.44785139  0.91867859  0.69440239     0.55200
H723        H  0.45835456  0.96757482  0.69177672     0.08200
C724        C  0.48060502  0.51816666  0.65483185    -0.05600
C725        C  0.48448337  0.54295361  0.65535054    -0.06300
C726        C  0.00389150  0.56254187  0.67486897    -0.15900
C727        C  0.01982483  0.55673232  0.69537850    -0.01500
C728        C  0.01575071  0.53176170  0.69481692    -0.09000
C729        C  0.47361260  0.00204578  0.61709540     0.65200
H730        H  0.47217954  0.54716535  0.63995852     0.10700
C731        C  0.04109608  0.57637720  0.71767461     0.63600
H732        H  0.02767658  0.52680946  0.70989005     0.08000
F733        F  0.43992497  0.90123437  0.66786800    -0.19400
F734        F  0.42892319  0.92470082  0.69981862    -0.15600
F735        F  0.45030125  0.90776797  0.72447680    -0.19100
F736        F  0.05016105  0.52419193  0.65166031    -0.22500
F737        F  0.02212709  0.51561519  0.60868858    -0.24000
F738        F  0.06238242  0.00526012  0.64725982    -0.18000
F739        F  0.05282001  0.56584921  0.73682238    -0.20500
F740        F  0.03144950  0.58685824  0.74054872    -0.21600
F741        F  0.05949397  0.59526982  0.69702393    -0.18800
F742        F  0.44621399  0.50738203  0.61510769    -0.18900
F743        F  0.45256737  0.97965436  0.62779978    -0.22700
F744        F  0.49072201  0.99649032  0.60147254    -0.24300
C745        C  0.07013947  0.64787325  0.45151782    -0.11100
C746        C  0.08331394  0.64887348  0.48158239     0.11400
C747        C  0.10576988  0.64733272  0.47946988    -0.03000
C748        C  0.11409407  0.64441884  0.44685260    -0.05700
C749        C  0.10045330  0.64247558  0.41661292    -0.16500
C750        C  0.07818917  0.64464955  0.41887107     0.02500
C751        C  0.07065262  0.64726863  0.51490591     0.12400
C752        C  0.12049826  0.64807680  0.51155934     0.63000
H753        H  0.13109869  0.64297423  0.44484960     0.12400
C754        C  0.06209608  0.64237878  0.38760328     0.55200
H755        H  0.05277474  0.64860679  0.45414842     0.08200
C756        C  0.07180676  0.66866406  0.53113644    -0.05600
C757        C  0.05831761  0.66491366  0.56222778    -0.06300
C758        C  0.04332998  0.64051983  0.57645567    -0.15900
C759        C  0.04195864  0.61915587  0.55990574    -0.01500
C760        C  0.05553613  0.62293377  0.52909944    -0.09000
C761        C  0.08670854  0.69510192  0.51536498     0.65200
H762        H  0.05906796  0.68092665  0.57548353     0.10700
C763        C  0.02698513  0.59263376  0.57537695     0.63600
H764        H  0.05459413  0.60686262  0.51574627     0.08000
F765        F  0.07583312  0.66260571  0.36535857    -0.19400
F766        F  0.04016767  0.64267861  0.39660785    -0.15600
F767        F  0.05484215  0.61971436  0.37081635    -0.19100
F768        F  0.10546198  0.62763298  0.53281365    -0.22500
F769        F  0.12790242  0.67033269  0.52937476    -0.24000
F770        F  0.14217003  0.64700372  0.50352319    -0.18000
F771        F  0.00154816  0.58547552  0.57781776    -0.20500
F772        F  0.03625991  0.59246370  0.60784186    -0.21600
F773        F  0.02888806  0.57472006  0.55560989    -0.18800
F774        F  0.08612927  0.71330044  0.53611940    -0.18900
F775        F  0.07640843  0.69556655  0.48379844    -0.22700
F776        F  0.11183599  0.70170861  0.51068311    -0.24300
C777        C  0.13746942  0.59473013  0.17764152    -0.11100
C778        C  0.14574324  0.57710673  0.18143887     0.11400
C779        C  0.15476473  0.57421671  0.21366545    -0.03000
C780        C  0.15231698  0.58700031  0.24227315    -0.05700
C781        C  0.14176740  0.60304738  0.23944800    -0.16500
C782        C  0.13546856  0.60806982  0.20592346     0.02500
C783        C  0.14320556  0.56098231  0.15139122     0.12400
C784        C  0.16687783  0.55769584  0.21765236     0.63000
H785        H  0.15816230  0.58394836  0.26734709     0.12400
C786        C  0.12633956  0.62693560  0.19927415     0.55200
H787        H  0.13151746  0.59709755  0.15222937     0.08200
C788        C  0.11965990  0.53910756  0.14351652    -0.05600
C789        C  0.11770038  0.52588192  0.11298749    -0.06300
C790        C  0.13827334  0.53406732  0.09006135    -0.15900
C791        C  0.16215445  0.55529384  0.09877177    -0.01500
C792        C  0.16411418  0.56857439  0.12934439    -0.09000
C793        C  0.09654695  0.53020808  0.16685723     0.65200
H794        H  0.09959905  0.50951415  0.10600043     0.10700
C795        C  0.18553036  0.56363188  0.07631545     0.63600
H796        H  0.18192379  0.58545081  0.13592898     0.08000
F797        F  0.10257400  0.61814314  0.21385447    -0.19400
F798        F  0.12430780  0.63052430  0.16439045    -0.15600
F799        F  0.14346736  0.65036339  0.21293711    -0.19100
F800        F  0.18835518  0.56725073  0.19706589    -0.22500
F801        F  0.15000564  0.53301284  0.20786804    -0.24000
F802        F  0.17410250  0.55714217  0.25133991    -0.18000
F803        F  0.20749488  0.58133415  0.09280217    -0.20500
F804        F  0.18262024  0.07450860  0.04619282    -0.21600
F805        F  0.18954746  0.04496402  0.07146020    -0.18800
F806        F  0.07602214  0.50774378  0.15543382    -0.18900
F807        F  0.08927417  0.54844133  0.16782006    -0.22700
F808        F  0.10224815  0.52608134  0.19990623    -0.24300
C809        C  0.40930220  0.86441495  0.48614361    -0.11100
C810        C  0.42758234  0.85696811  0.48331689     0.11400
C811        C  0.43133671  0.84817276  0.45146394    -0.03000
C812        C  0.41823048  0.84957698  0.42233235    -0.05700
C813        C  0.40088784  0.85862689  0.42438892    -0.16500
C814        C  0.39553193  0.86516844  0.45749462     0.02500
C815        C  0.44222450  0.85867136  0.51474496     0.12400
C816        C  0.44869095  0.83692619  0.44856473     0.63000
H817        H  0.42181093  0.84386002  0.39753096     0.12400
C818        C  0.37567785  0.87309892  0.46341291     0.55200
H819        H  0.40637650  0.87027175  0.51127710     0.08200
C820        C  0.46403462  0.88172717  0.52436269    -0.05600
C821        C  0.47529016  0.88289362  0.55646067    -0.06300
C822        C  0.46481315  0.86224768  0.57964556    -0.15900
C823        C  0.44309168  0.83906311  0.56977398    -0.01500
C824        C  0.43224495  0.83770472  0.53721544    -0.09000
C825        C  0.47466157  0.90534200  0.50156061     0.65200
H826        H  0.49178394  0.90047918  0.56444033     0.10700
C827        C  0.43140358  0.81580907  0.59319144     0.63600
H828        H  0.41525429  0.82048298  0.52944136     0.08000
F829        F  0.38357608  0.89661071  0.44840262    -0.19400
F830        F  0.37170381  0.87511097  0.49814059    -0.15600
F831        F  0.35261763  0.85511881  0.44966343    -0.19100
F832        F  0.43947983  0.81555610  0.46937921    -0.22500
F833        F  0.47304511  0.85435420  0.45894068    -0.24000
F834        F  0.45003488  0.82983203  0.41511167    -0.18000
F835        F  0.42002955  0.82005525  0.62129623    -0.20500
F836        F  0.45002361  0.81068957  0.60440819    -0.21600
F837        F  0.91307390  0.79439061  0.57628610    -0.18800
F838        F  0.49661383  0.92534447  0.51514065    -0.18900
F839        F  0.45688736  0.91310424  0.49828970    -0.22700
F840        F  0.48046189  0.90022455  0.46921327    -0.24300
C841        C  0.48483124  0.96872286  0.35597713    -0.11100
C842        C  0.48864089  0.98638207  0.32986913     0.11400
C843        C  0.46965846  0.98035110  0.30458837    -0.03000
C844        C  0.44667047  0.95715182  0.30748509    -0.05700
C845        C  0.44267373  0.93986418  0.33409416    -0.16500
C846        C  0.46200463  0.94533412  0.35846991     0.02500
C847        C  0.00973158  0.51367644  0.32608366     0.12400
C848        C  0.46361361  0.50804052  0.29014976     0.63000
H849        H  0.43173851  0.95208898  0.28866987     0.12400
C850        C  0.45834305  0.92650054  0.38688674     0.55200
H851        H  0.99991296  0.97355481  0.37440482     0.08200
C852        C  0.01694031  0.53033673  0.35460013    -0.05600
C853        C  0.04016214  0.55342224  0.35305465    -0.06300
C854        C  0.05626975  0.55988840  0.32432817    -0.15900
C855        C  0.04934727  0.54304523  0.29613584    -0.01500
C856        C  0.02596711  0.52009145  0.29743603    -0.09000
C857        C  0.99426755  0.02828426  0.37529538     0.65200
H858        H  0.04617829  0.56648538  0.37454410     0.10700
C859        C  0.06690341  0.54920130  0.26529730     0.63600
H860        H  0.52024209  0.50685763  0.27626572     0.08000
F861        F  0.43728743  0.92138284  0.40657396    -0.19400
F862        F  0.47920334  0.93577328  0.40849340    -0.15600
F863        F  0.45471605  0.90412092  0.37252954    -0.19100
F864        F  0.47951039  0.51396146  0.26187430    -0.22500
F865        F  0.47229504  0.52930956  0.31068481    -0.24000
F866        F  0.45242206  0.98919867  0.25399986    -0.18000
F867        F  0.05661902  0.53034394  0.24057835    -0.20500
F868        F  0.08979892  0.55171655  0.27587715    -0.21600
F869        F  0.07130634  0.57173232  0.25024369    -0.18800
F870        F  0.01027204  0.54293611  0.41059537    -0.18900
F871        F  0.98885280  0.00930077  0.39925389    -0.22700
F872        F  0.97262885  0.02192605  0.35636951    -0.24300
C873        C  0.28136018  0.76324739  0.31550263    -0.11100
C874        C  0.26189898  0.76155179  0.33662849     0.11400
C875        C  0.26653300  0.78212130  0.35814683    -0.03000
C876        C  0.29050025  0.80441450  0.35656054    -0.05700
C877        C  0.31014646  0.80664753  0.33474413    -0.16500
C878        C  0.30548124  0.78536472  0.31393723     0.02500
C879        C  0.23689907  0.73766748  0.33570514     0.12400
C880        C  0.24629705  0.78038333  0.38290812     0.63000
H881        H  0.29407261  0.82025684  0.37285072     0.12400
C882        C  0.32534296  0.78549318  0.28983500     0.55200
H883        H  0.27728336  0.74686961  0.30000462     0.08200
C884        C  0.21911913  0.73271942  0.30912148    -0.05600
C885        C  0.19628459  0.70923345  0.30907904    -0.06300
C886        C  0.19071343  0.69055437  0.33455579    -0.15900
C887        C  0.20849633  0.69590220  0.36169934    -0.01500
C888        C  0.23147562  0.71931332  0.36131111    -0.09000
C889        C  0.22444648  0.75204557  0.28063355     0.65200
H890        H  0.18273817  0.70510921  0.28850172     0.10700
C891        C  0.20337162  0.67755888  0.39150042     0.63600
H892        H  0.24564209  0.72353927  0.38105349     0.08000
F893        F  0.31591717  0.76312535  0.27135600    -0.19400
F894        F  0.34584600  0.78814708  0.30871487    -0.15600
F895        F  0.33331241  0.80521338  0.26624822    -0.19100
F896        F  0.24084158  0.76159288  0.40720719    -0.22500
F897        F  0.22433847  0.77457275  0.36513184    -0.24000
F898        F  0.25416767  0.80300124  0.40018833    -0.18000
F899        F  0.22154888  0.68839297  0.41708544    -0.20500
F900        F  0.20368519  0.65623112  0.37982204    -0.21600
F901        F  0.17998818  0.67049658  0.40627773    -0.18800
F902        F  0.20372908  0.74442585  0.25910958    -0.18900
F903        F  0.24477376  0.75517961  0.26085176    -0.22700
F904        F  0.23019691  0.77519501  0.29468116    -0.24300
C905        C  0.33645327  0.91134224  0.21040190    -0.11100
C906        C  0.35726408  0.92410359  0.18799170     0.11400
C907        C  0.38011791  0.92396336  0.19485867    -0.03000
C908        C  0.38121758  0.91066249  0.22397790    -0.05700
C909        C  0.36060963  0.89828914  0.24686747    -0.16500
C910        C  0.33767269  0.89834407  0.23988901     0.02500
C911        C  0.35485195  0.93765325  0.15744714     0.12400
C912        C  0.40346237  0.93838080  0.17200135     0.63000
H913        H  0.39872437  0.91078584  0.22998374     0.12400
C914        C  0.31452194  0.88469689  0.26319999     0.55200
H915        H  0.31929201  0.91201076  0.20484347     0.08200
C916        C  0.34414292  0.92497845  0.12622214    -0.05600
C917        C  0.34636121  0.93956191  0.09673619    -0.06300
C918        C  0.35834820  0.96634330  0.09764386    -0.15900
C919        C  0.36649880  0.97867261  0.13026221    -0.01500
C920        C  0.36473235  0.96393935  0.15945836    -0.09000
C921        C  0.33055830  0.89615723  0.12419308     0.65200
H922        H  0.33921837  0.92995686  0.07241358     0.10700
C923        C  0.34794747  0.49347442  0.12155031     0.63600
H924        H  0.37199973  0.97297347  0.18412199     0.08000
F925        F  0.29294161  0.88245718  0.24776396    -0.19400
F926        F  0.31862763  0.89814033  0.29344548    -0.15600
F927        F  0.30987188  0.86043414  0.27076505    -0.19100
F928        F  0.41204647  0.96416509  0.17365244    -0.22500
F929        F  0.39750882  0.93045953  0.13823138    -0.24000
F930        F  0.42315414  0.93453261  0.18213538    -0.18000
F931        F  0.32993225  0.49126159  0.09789212    -0.20500
F932        F  0.37032383  0.51615563  0.11617227    -0.21600
F933        F  0.38045611  0.01387687  0.16937084    -0.18800
F934        F  0.32218417  0.88755107  0.09115874    -0.18900
F935        F  0.30959178  0.88586697  0.14581900    -0.22700
F936        F  0.34670648  0.88741174  0.13416380    -0.24300
O937        O  0.91396011  0.39778828  0.31776569    -0.73700
O938        O  0.84949623  0.33635649  0.31595038    -0.73700
O939        O  0.87495436  0.37697068  0.27287407    -0.73800
O940        O  0.88904302  0.35779326  0.36100669    -0.73800
O941        O  0.87112718  0.37742846  0.38687970    -0.73800
O942        O  0.85663746  0.39634214  0.29927083    -0.73700
O943        O  0.83143750  0.35568834  0.34219874    -0.73700
O944        O  0.89587736  0.41759854  0.34346759    -0.73800
Ni945      Ni  0.88238086  0.36640081  0.31598340     1.25400
Ni946      Ni  0.86303628  0.38735278  0.34392540     1.25400
C947        C  0.91547624  0.41784117  0.33069231     0.88500
C948        C  0.82969214  0.33563754  0.32863391     0.88400
C949        C  0.86416934  0.39048934  0.27181124     0.88400
C950        C  0.88328044  0.36529363  0.38870212     0.88600
O951        O  0.58206381  0.10190336  0.31446254    -0.73700
O952        O  0.64293476  0.16703301  0.31485068    -0.73700
O953        O  0.62329824  0.12580688  0.27294840    -0.73800
O954        O  0.60164423  0.14279981  0.35640831    -0.73800
O955        O  0.62041306  0.12582567  0.38693710    -0.73800
O956        O  0.64336005  0.11007598  0.30313343    -0.73700
O957        O  0.66220765  0.15078945  0.34603867    -0.73700
O958        O  0.60183459  0.08529405  0.34410155    -0.73800
Ni959      Ni  0.61185748  0.13500267  0.31356396     1.25400
Ni960      Ni  0.63271968  0.11747471  0.34614830     1.25400
C961        C  0.58202803  0.08291100  0.32899018     0.88500
C962        C  0.66251323  0.16978849  0.33109247     0.88400
C963        C  0.63660374  0.11482263  0.27396861     0.88400
C964        C  0.60684915  0.13661758  0.38557752     0.88600
O965        O  0.97298079  0.39411438  0.68202191    -0.73700
O966        O  0.97584222  0.33252638  0.68032088    -0.73700
O967        O  0.99187397  0.37227561  0.72446959    -0.73800
O968        O  0.95680998  0.35477731  0.63783075    -0.73800
O969        O  0.49392435  0.37521771  0.61012924    -0.73800
O970        O  0.52903277  0.39175540  0.69657845    -0.73700
O971        O  0.51258256  0.35234876  0.65198933    -0.73700
O972        O  0.51028007  0.41421653  0.65500314    -0.73800
Ni973      Ni  0.97305374  0.36260826  0.68211282     1.25400
Ni974      Ni  0.51275734  0.38401941  0.65241213     1.25400
C975        C  0.99126313  0.41454570  0.66918581     0.88500
C976        C  0.99459039  0.33208522  0.66592834     0.88400
C977        C  0.51629505  0.38526800  0.72476644     0.88400
C978        C  0.96945232  0.36268053  0.60964477     0.88600
O979        O  0.51948192  0.10487102  0.68662783    -0.73700
O980        O  0.52177639  0.16903034  0.67971913    -0.73700
O981        O  0.50418302  0.13077772  0.72729486    -0.73800
O982        O  0.53735154  0.14285701  0.63913281    -0.73800
O983        O  0.99953005  0.12335779  0.61318027    -0.73800
O984        O  0.96640928  0.11228209  0.70127496    -0.73700
O985        O  0.98424858  0.15007702  0.65312962    -0.73700
O986        O  0.98149251  0.08595460  0.66121034    -0.73800
Ni987      Ni  0.52205505  0.13765240  0.68409710     1.25400
Ni988      Ni  0.98159700  0.11735482  0.65626617     1.25400
C989        C  0.50006010  0.08476709  0.67529910     0.88500
C990        C  0.50338459  0.17011660  0.66515764     0.88400
C991        C  0.97970842  0.11897379  0.72889203     0.88400
C992        C  0.52388300  0.13433724  0.61182959     0.88600
O993        O  0.91651444  0.01850765  0.01965777    -0.73700
O994        O  0.85673564  0.02503625  0.01874969    -0.73700
O995        O  0.87666196  0.00445217  0.06250237    -0.73800
O996        O  0.89717969  0.03930859  0.97565786    -0.73800
O997        O  0.87962330  0.50635016  0.94023695    -0.73800
O998        O  0.85698991  0.46729202  0.02388540    -0.73700
O999        O  0.83632138  0.48634255  0.97891698    -0.73700
O1000       O  0.89950221  0.48690670  0.98466217    -0.73800
Ni1001     Ni  0.88744773  0.02315390  0.02006050     1.25400
Ni1002     Ni  0.86740778  0.48546783  0.98085612     1.25400
C1003       C  0.91562021  0.99863192  0.00685556     0.88500
C1004       C  0.83646755  0.00764690  0.00447551     0.88400
C1005       C  0.86232743  0.47877426  0.05297207     0.88400
C1006       C  0.89070476  0.02671730  0.94744653     0.88600
O1007       O  0.58086686  0.47983386  0.01260975    -0.73700
O1008       O  0.64302662  0.47770835  0.01373061    -0.73700
O1009       O  0.62063865  0.49626314  0.05651052    -0.73800
O1010       O  0.60269592  0.46120780  0.97010300    -0.73200
O1011       O  0.62138479  0.99444659  0.94882606    -0.73800
O1012       O  0.63986565  0.03292589  0.03204547    -0.73700
O1013       O  0.66288070  0.01490884  0.99033734    -0.73700
O1014       O  0.59848720  0.01235388  0.99060781    -0.73800
Ni1015     Ni  0.61119463  0.47743114  0.01426984     1.25400
Ni1016     Ni  0.63129036  0.01490253  0.98936774     1.25400
C1017       C  0.57938698  0.99385529  0.00573297     0.88500
C1018       C  0.66532238  0.99759646  0.00599263     0.88400
C1019       C  0.63415118  0.02132531  0.06111398     0.88400
C1020       C  0.60849601  0.47389997  0.94176801     0.88600
C1021       C  0.51261060  0.48316639  0.98211562    -0.11100
C1022       C  0.50781257  0.99226323  0.00986015     0.11400
C1023       C  0.51943762  0.99035489  0.04051231    -0.03000
C1024       C  0.54270537  0.99059130  0.03798353    -0.05700
C1025       C  0.55454547  0.99286904  0.00600654    -0.16500
C1026       C  0.53451642  0.48081977  0.98161878     0.02500
C1027       C  0.98426887  0.99404708  0.01009807     0.12400
C1028       C  0.50737981  0.98817375  0.07562092     0.63000
H1029       H  0.55212553  0.98946297  0.06107537     0.12400
C1030       C  0.53410901  0.45873394  0.96280360     0.55200
H1031       H  0.99509372  0.46857244  0.97057421     0.08200
C1032       C  0.98071414  0.51348792  0.96884619    -0.05600
C1033       C  0.95783068  0.51394857  0.97128431    -0.06300
C1034       C  0.93864764  0.99594759  0.00816021    -0.15900
C1035       C  0.93766861  0.97223070  0.01318801    -0.01500
C1036       C  0.96064040  0.97175451  0.01352457    -0.09000
C1037       C  0.99594941  0.52155826  0.93550623     0.65200
H1038       H  0.95125939  0.52048233  0.94966489     0.10700
C1039       C  0.91275941  0.94759972  0.01919012     0.63600
H1040       H  0.96037855  0.95385823  0.01625537     0.08000
F1041       F  0.55316261  0.46796178  0.93813363    -0.19400
F1042       F  0.51116906  0.44374820  0.94630406    -0.15600
F1043       F  0.53783157  0.44348626  0.98586952    -0.19100
F1044       F  0.48437117  0.96571659  0.07765967    -0.22500
F1045       F  0.50332033  0.00840625  0.08059579    -0.24000
F1046       F  0.52264704  0.98818395  0.10213008    -0.18000
F1047       F  0.91672680  0.92785088  0.02877163    -0.20500
F1048       F  0.89854162  0.94052344  0.98928604    -0.21600
F1049       F  0.89911071  0.95080839  0.04533684    -0.18800
F1050       F  0.98545988  0.53056114  0.91146548    -0.18900
F1051       F  0.99647515  0.50098315  0.92131929    -0.22700
F1052       F  0.02058175  0.54065173  0.94180077    -0.24300
C1053       C  0.71379215  0.47525680  0.00366546    -0.11100
C1054       C  0.74102637  0.00717454  0.00791395     0.11400
C1055       C  0.73721930  0.02763254  0.99910206    -0.03000
C1056       C  0.71228802  0.02359942  0.99936408    -0.05700
C1057       C  0.69096887  0.99967425  0.00712875    -0.16500
C1058       C  0.68961979  0.47321017  0.00567023     0.02500
C1059       C  0.76662891  0.00957784  0.00758915     0.12400
C1060       C  0.75934202  0.05345524  0.98872991     0.63000
H1061       H  0.70932797  0.03933281  0.99315834     0.12400
C1062       C  0.66674326  0.44753463  0.01476622     0.55200
H1063       H  0.71588863  0.45881502  0.00862556     0.08200
C1064       C  0.77437917  0.50211858  0.02661702    -0.05600
C1065       C  0.79850658  0.50421583  0.02452360    -0.06300
C1066       C  0.81314772  0.00964962  0.00428538    -0.15900
C1067       C  0.79963283  0.00758534  0.97356327    -0.01500
C1068       C  0.77635106  0.00727097  0.97587276    -0.09000
C1069       C  0.76329403  0.50258217  0.06155262     0.65200
H1070       H  0.80927494  0.50651005  0.04776960     0.10700
C1071       C  0.81004401  0.00642491  0.93841839     0.63600
H1072       H  0.76526480  0.00482294  0.95287897     0.08000
F1073       F  0.65659002  0.44908473  0.04598819    -0.19400
F1074       F  0.67315252  0.42869581  0.01791304    -0.15600
F1075       F  0.64854664  0.44016119  0.98922535    -0.19100
F1076       F  0.77024170  0.05120764  0.95863348    -0.22500
F1077       F  0.77751520  0.06269243  0.01435940    -0.24000
F1078       F  0.75166029  0.07113878  0.98304310    -0.18000
F1079       F  0.80973037  0.98363404  0.93483907    -0.20500
F1080       F  0.83474737  0.02634752  0.93491048    -0.21600
F1081       F  0.79580338  0.00832413  0.91191842    -0.18800
F1082       F  0.78010175  0.50655485  0.08808036    -0.18900
F1083       F  0.74140436  0.47957132  0.06751698    -0.22700
F1084       F  0.75745856  0.52185723  0.06243205    -0.24300
C1085       C  0.92997812  0.09562824  0.80112757    -0.11100
C1086       C  0.94114714  0.08689774  0.82521430     0.11400
C1087       C  0.96622969  0.09172515  0.81944691    -0.03000
C1088       C  0.97877271  0.10399781  0.78869836    -0.05700
C1089       C  0.96690530  0.11096966  0.76322197    -0.16500
C1090       C  0.94266685  0.10813073  0.77042998     0.02500
C1091       C  0.92584231  0.07165272  0.85546333     0.12400
C1092       C  0.97946453  0.08330892  0.84521499     0.63000
H1093       H  0.99765279  0.10715541  0.78365915     0.12400
C1094       C  0.93055979  0.11897604  0.74665019     0.55200
H1095       H  0.91089755  0.09199569  0.80615545     0.08200
C1096       C  0.92272215  0.08295895  0.88544176    -0.05600
C1097       C  0.91029112  0.06736139  0.91420370    -0.06300
C1098       C  0.90071825  0.04085960  0.91401638    -0.15900
C1099       C  0.90260283  0.02942165  0.88293062    -0.01500
C1100       C  0.91500149  0.04517066  0.85420994    -0.09000
C1101       C  0.93263123  0.11138810  0.88709535     0.65200
H1102       H  0.90823823  0.07599628  0.93745025     0.10700
C1103       C  0.89246606  0.00099336  0.87983054     0.63600
H1104       H  0.91710711  0.03701148  0.83049990     0.08000
F1105       F  0.94831322  0.14370390  0.73753544    -0.19400
F1106       F  0.91035746  0.11947188  0.76248043    -0.15600
F1107       F  0.92153473  0.10434595  0.71731095    -0.19100
F1108       F  0.96695985  0.05706363  0.84713577    -0.22500
F1109       F  0.97949217  0.09293248  0.87744697    -0.24000
F1110       F  0.00447887  0.09173614  0.83594191    -0.18000
F1111       F  0.89739909  0.99452034  0.84771160    -0.20500
F1112       F  0.86637633  0.98791668  0.88455664    -0.21600
F1113       F  0.90385007  0.99323623  0.90418350    -0.18800
F1114       F  0.92874028  0.11870113  0.91923567    -0.18900
F1115       F  0.92015821  0.11804591  0.86305444    -0.22700
F1116       F  0.95844044  0.12469606  0.88018555    -0.24300
C1117       C  0.56476724  0.40471857  0.79734974    -0.11100
C1118       C  0.55637936  0.41734190  0.81931442     0.11400
C1119       C  0.53390683  0.41791985  0.81123835    -0.03000
C1120       C  0.52089741  0.40630340  0.78068215    -0.05700
C1121       C  0.52975452  0.39445496  0.75802917    -0.16500
C1122       C  0.55158903  0.39288604  0.76689377     0.02500
C1123       C  0.57208737  0.43096720  0.84977360     0.12400
C1124       C  0.52389393  0.43104122  0.83458352     0.63000
H1125       H  0.50411340  0.40719851  0.77356202     0.12400
C1126       C  0.56052690  0.37822934  0.74487778     0.55200
H1127       H  0.58202438  0.40459663  0.80399277     0.08200
C1128       C  0.57059941  0.41844691  0.88118074    -0.05600
C1129       C  0.58375510  0.43318974  0.90995554    -0.06300
C1130       C  0.59830666  0.46000566  0.90843940    -0.15900
C1131       C  0.60095251  0.47231500  0.87594192    -0.01500
C1132       C  0.58797622  0.45733364  0.84720838    -0.09000
C1133       C  0.55500389  0.38965923  0.88426974     0.65200
H1134       H  0.58216748  0.42365764  0.93426510     0.10700
C1135       C  0.62196262  0.99496420  0.87693334     0.63600
H1136       H  0.58917332  0.46621401  0.82243768     0.08000
F1137       F  0.57928933  0.37545704  0.76117254    -0.19400
F1138       F  0.57034772  0.39089065  0.71403476    -0.15600
F1139       F  0.54031975  0.35416748  0.73832273    -0.19100
F1140       F  0.54120041  0.45679483  0.83601089    -0.22500
F1141       F  0.51995790  0.42086211  0.86747413    -0.24000
F1142       F  0.00109018  0.42824129  0.82282190    -0.18000
F1143       F  0.62518964  0.00071248  0.84204547    -0.20500
F1144       F  0.64567847  0.00196526  0.89032427    -0.21600
F1145       F  0.61251605  0.00925401  0.89172970    -0.18800
F1146       F  0.55513394  0.38132068  0.91751032    -0.18900
F1147       F  0.56495506  0.37878153  0.86260820    -0.22700
F1148       F  0.53002747  0.38122924  0.87521802    -0.24300
C1149       C  0.48048111  0.26314474  0.67694788    -0.11100
C1150       C  0.00296636  0.26525873  0.66429356     0.11400
C1151       C  0.02212638  0.28866340  0.65064522    -0.03000
C1152       C  0.01859591  0.30985185  0.65212059    -0.05700
C1153       C  0.99615825  0.30819409  0.66551814    -0.16500
C1154       C  0.47643292  0.28403271  0.67760934     0.02500
C1155       C  0.50510485  0.24191761  0.66425137     0.12400
C1156       C  0.04584669  0.29103019  0.63379678     0.63000
H1157       H  0.03349975  0.32794999  0.64237664     0.12400
C1158       C  0.45093276  0.27966356  0.69079950     0.55200
H1159       H  0.46593011  0.24468356  0.68628299     0.08200
C1160       C  0.51323307  0.23397282  0.69354936    -0.05600
C1161       C  0.51319612  0.21080604  0.69213290    -0.06300
C1162       C  0.50395696  0.19482525  0.66328259    -0.15900
C1163       C  0.99520268  0.20264790  0.63411590    -0.01500
C1164       C  0.99625964  0.22632548  0.63509612    -0.09000
C1165       C  0.52087582  0.24935824  0.72660356     0.65200
H1166       H  0.51941173  0.20444097  0.71427575     0.10700
C1167       C  0.98478194  0.18625572  0.60217581     0.63600
H1168       H  0.98947243  0.23260179  0.61346659     0.08000
F1169       F  0.43435236  0.25434373  0.69873398    -0.19400
F1170       F  0.43942632  0.28675692  0.66580996    -0.15600
F1171       F  0.45441141  0.29354991  0.72047315    -0.19100
F1172       F  0.03901205  0.27505183  0.60568512    -0.22500
F1173       F  0.05886406  0.28439398  0.65692643    -0.24000
F1174       F  0.06225688  0.31557910  0.62239778    -0.18000
F1175       F  0.98074792  0.19909759  0.57555362    -0.20500
F1176       F  0.96172243  0.16486453  0.60984070    -0.21600
F1177       F  0.00177769  0.17902119  0.59058127    -0.18800
F1178       F  0.52845469  0.23834673  0.75181571    -0.18900
F1179       F  0.50045383  0.25095284  0.73936352    -0.22700
F1180       F  0.54082427  0.27362207  0.72034545    -0.24300
C1181       C  0.97681178  0.46761444  0.69209642    -0.11100
C1182       C  0.49556900  0.48775086  0.67265084     0.11400
C1183       C  0.51232286  0.48385564  0.65168227    -0.03000
C1184       C  0.50982537  0.45959858  0.65108703    -0.05700
C1185       C  0.99109773  0.43909582  0.67062752    -0.16500
C1186       C  0.97385954  0.44308400  0.69116864     0.02500
C1187       C  0.99666543  0.01230016  0.67501064     0.12400
C1188       C  0.54367497  0.01072992  0.65616097     0.63000
H1189       H  0.52276212  0.45662454  0.63517142     0.12400
C1190       C  0.95240155  0.42200814  0.71210595     0.55200
H1191       H  0.96437961  0.47137898  0.70799307     0.08200
C1192       C  0.98586921  0.01929515  0.64782144    -0.05600
C1193       C  0.98689607  0.04288136  0.64953674    -0.06300
C1194       C  0.49906613  0.05984886  0.67690273    -0.15900
C1195       C  0.50937931  0.05244189  0.70451460    -0.01500
C1196       C  0.50758649  0.02846860  0.70323819    -0.09000
C1197       C  0.95907013  0.49781580  0.63340518     0.65200
H1198       H  0.97867370  0.04849740  0.62895303     0.10700
C1199       C  0.52169686  0.06925534  0.73557716     0.63600
H1200       H  0.51513719  0.02224664  0.72402971     0.08000
F1201       F  0.93585102  0.40286867  0.69036421    -0.19400
F1202       F  0.93838166  0.43058754  0.72990979    -0.15600
F1203       F  0.96224457  0.41233222  0.73607723    -0.19100
F1204       F  0.55263178  0.02753902  0.68338972    -0.22500
F1205       F  0.53954399  0.02241176  0.62822468    -0.24000
F1206       F  0.54600020  0.49703895  0.60978989    -0.18000
F1207       F  0.52698835  0.05670445  0.76130282    -0.20500
F1208       F  0.50548671  0.07676504  0.74923864    -0.21600
F1209       F  0.54436957  0.09042090  0.72593164    -0.18800
F1210       F  0.96565171  0.01328040  0.59255365    -0.18900
F1211       F  0.94168195  0.47882995  0.65489731    -0.22700
F1212       F  0.96859285  0.48739190  0.61026378    -0.24300
C1213       C  0.56553092  0.14601770  0.45240201    -0.11100
C1214       C  0.57680517  0.14455859  0.48312064     0.11400
C1215       C  0.59880967  0.14217691  0.48183776    -0.03000
C1216       C  0.60853140  0.14081909  0.44943726    -0.05700
C1217       C  0.59681852  0.14137068  0.41833680    -0.16500
C1218       C  0.57515629  0.14470737  0.41986667     0.02500
C1219       C  0.56349060  0.14289349  0.51608483     0.12400
C1220       C  0.61152220  0.14030244  0.51458841     0.63000
H1221       H  0.62513136  0.13860486  0.44829086     0.12400
C1222       C  0.56153706  0.14620165  0.38780648     0.55200
H1223       H  0.54854277  0.14752419  0.45429612     0.08200
C1224       C  0.56578776  0.16453448  0.53313723    -0.05600
C1225       C  0.55255787  0.16104681  0.56447807    -0.06300
C1226       C  0.53668719  0.13668827  0.57834695    -0.15900
C1227       C  0.53406407  0.11507692  0.56078882    -0.01500
C1228       C  0.54740828  0.11860115  0.52974833    -0.09000
C1229       C  0.58182018  0.19103965  0.51801593     0.65200
H1230       H  0.55424258  0.17730616  0.57824827     0.10700
C1231       C  0.51815712  0.08849094  0.57557053     0.63600
H1232       H  0.54562456  0.10233246  0.51588253     0.08000
F1233       F  0.57791704  0.16723753  0.36826194    -0.19400
F1234       F  0.54060536  0.14859826  0.39583895    -0.15600
F1235       F  0.55302687  0.12431754  0.36854546    -0.19100
F1236       F  0.59533612  0.11808574  0.53208195    -0.22500
F1237       F  0.61739752  0.16078410  0.53567814    -0.24000
F1238       F  0.63384383  0.14019283  0.50763986    -0.18000
F1239       F  0.49302362  0.08241126  0.57809798    -0.20500
F1240       F  0.52723513  0.08751018  0.60784489    -0.21600
F1241       F  0.51913033  0.07029850  0.55525639    -0.18800
F1242       F  0.58232185  0.20949204  0.53936411    -0.18900
F1243       F  0.57189234  0.19257805  0.48663473    -0.22700
F1244       F  0.60655951  0.19635327  0.51315923    -0.24300
C1245       C  0.64068392  0.09944586  0.17918305    -0.11100
C1246       C  0.64812258  0.08118361  0.18293766     0.11400
C1247       C  0.65622621  0.07743407  0.21540291    -0.03000
C1248       C  0.65314981  0.08962702  0.24427550    -0.05700
C1249       C  0.64308484  0.10608957  0.24137038    -0.16500
C1250       C  0.63833377  0.11237523  0.20770465     0.02500
C1251       C  0.64501617  0.06481332  0.15291972     0.12400
C1252       C  0.66797921  0.06058676  0.21928389     0.63000
H1253       H  0.65793137  0.08566099  0.26954483     0.12400
C1254       C  0.63049145  0.13221235  0.20119721     0.55200
H1255       H  0.63547153  0.10254727  0.15365674     0.08200
C1256       C  0.62116102  0.04315119  0.14555439    -0.05600
C1257       C  0.61887325  0.02892647  0.11598443    -0.06300
C1258       C  0.63930173  0.03613092  0.09318447    -0.15900
C1259       C  0.66330346  0.05760955  0.10073602    -0.01500
C1260       C  0.66572603  0.07165409  0.13073232    -0.09000
C1261       C  0.59802963  0.03554220  0.16833991     0.65200
H1262       H  0.60064384  0.01251871  0.10958340     0.10700
C1263       C  0.68628114  0.06537111  0.07764014     0.63600
H1264       H  0.68372649  0.08844545  0.13681206     0.08000
F1265       F  0.60577997  0.12315701  0.21237792    -0.19400
F1266       F  0.63149758  0.13811795  0.16649034    -0.15600
F1267       F  0.64679906  0.15446990  0.21823974    -0.19100
F1268       F  0.68975376  0.07026281  0.19926173    -0.22500
F1269       F  0.65106010  0.03612575  0.20868238    -0.24000
F1270       F  0.67464789  0.05942914  0.25308083    -0.18000
F1271       F  0.70838193  0.08440200  0.09232115    -0.20500
F1272       F  0.68324512  0.57468821  0.04609275    -0.21600
F1273       F  0.68825192  0.54303459  0.06832775    -0.18800
F1274       F  0.57710121  0.01317805  0.15746873    -0.18900
F1275       F  0.59163300  0.05442792  0.16762727    -0.22700
F1276       F  0.60326208  0.03195444  0.20188925    -0.24300
C1277       C  0.90410337  0.37053657  0.48322131    -0.11100
C1278       C  0.91661708  0.35647496  0.48246172     0.11400
C1279       C  0.91522832  0.34258998  0.45266453    -0.03000
C1280       C  0.90315510  0.34517507  0.42321739    -0.05700
C1281       C  0.89208203  0.36082234  0.42278999    -0.16500
C1282       C  0.89165866  0.37297362  0.45406314     0.02500
C1283       C  0.93124370  0.35706674  0.51346083     0.12400
C1284       C  0.92666189  0.32532678  0.45197351     0.63000
H1285       H  0.90279980  0.33526078  0.39995108     0.12400
C1286       C  0.87876727  0.38887759  0.45724333     0.55200
H1287       H  0.90485407  0.38023865  0.50691072     0.08200
C1288       C  0.95611448  0.37744702  0.51952557    -0.05600
C1289       C  0.96815112  0.37785386  0.55067701    -0.06300
C1290       C  0.95599673  0.35889389  0.57613016    -0.15900
C1291       C  0.93133678  0.33798906  0.56932258    -0.01500
C1292       C  0.91933030  0.33765953  0.53810463    -0.09000
C1293       C  0.96950142  0.39918249  0.49376464     0.65200
H1294       H  0.98687991  0.39375905  0.55599876     0.10700
C1295       C  0.91776135  0.31582411  0.59426997     0.63600
H1296       H  0.90020083  0.32241948  0.53289438     0.08000
F1297       F  0.89061150  0.40994483  0.43580110    -0.19400
F1298       F  0.87989414  0.39757972  0.49049447    -0.15600
F1299       F  0.85333258  0.37433131  0.44868328    -0.19100
F1300       F  0.91527243  0.30666742  0.47702560    -0.22500
F1301       F  0.95249339  0.33926315  0.45822572    -0.24000
F1302       F  0.92313368  0.31342384  0.42046210    -0.18000
F1303       F  0.90985751  0.32338993  0.62304029    -0.20500
F1304       F  0.93398228  0.30711575  0.60403440    -0.21600
F1305       F  0.39658721  0.29567993  0.57951674    -0.18800
F1306       F  0.99435834  0.41590406  0.50329248    -0.18900
F1307       F  0.95672824  0.41265230  0.49158871    -0.22700
F1308       F  0.97004660  0.38982974  0.46155683    -0.24300
C1309       C  0.98492795  0.46812424  0.34245996    -0.11100
C1310       C  0.98552452  0.48903148  0.32598167     0.11400
C1311       C  0.96327088  0.48631289  0.31026244    -0.03000
C1312       C  0.94063838  0.46277726  0.31301521    -0.05700
C1313       C  0.93996852  0.44190581  0.32970760    -0.16500
C1314       C  0.96240798  0.44440734  0.34458775     0.02500
C1315       C  0.51255891  0.01127395  0.33012959     0.12400
C1316       C  0.97393677  0.99807314  0.27425737     0.63000
H1317       H  0.92327919  0.46027281  0.30141478     0.12400
C1318       C  0.96240861  0.42238869  0.36335915     0.55200
H1319       H  0.50239355  0.47074131  0.35388694     0.08200
C1320       C  0.51549213  0.03135716  0.35164084    -0.05600
C1321       C  0.53860801  0.05454885  0.35053150    -0.06300
C1322       C  0.55855943  0.05799293  0.32884238    -0.15900
C1323       C  0.55562318  0.03802342  0.30720873    -0.01500
C1324       C  0.53260540  0.01470927  0.30854821    -0.09000
C1325       C  0.50040355  0.52357660  0.38671416     0.65200
H1326       H  0.54137510  0.07022504  0.36671691     0.10700
C1327       C  0.57647616  0.04170265  0.28224305     0.63600
H1328       H  0.03001498  0.99898787  0.29243889     0.08000
F1329       F  0.94358043  0.41275827  0.38836934    -0.19400
F1330       F  0.98542437  0.42981383  0.37940142    -0.15600
F1331       F  0.95804241  0.40339894  0.34020426    -0.19100
F1332       F  0.99360748  0.00016968  0.25390501    -0.22500
F1333       F  0.98005947  0.02191380  0.28602919    -0.24000
F1334       F  0.93964400  0.50170956  0.27840255    -0.18000
F1335       F  0.56923844  0.02037358  0.26218879    -0.20500
F1336       F  0.59807199  0.04659654  0.30029135    -0.21600
F1337       F  0.58217411  0.06198937  0.26045894    -0.18800
F1338       F  0.50076322  0.05044969  0.39320196    -0.18900
F1339       F  0.49870151  0.50221241  0.40217514    -0.22700
F1340       F  0.47625850  0.51862234  0.37814152    -0.24300
C1341       C  0.77562403  0.26694188  0.31376311    -0.11100
C1342       C  0.75513293  0.26767175  0.32901671     0.11400
C1343       C  0.75903369  0.29025136  0.34478668    -0.03000
C1344       C  0.78347935  0.31192554  0.34338874    -0.05700
C1345       C  0.80435828  0.31153701  0.32790285    -0.16500
C1346       C  0.80028362  0.28830383  0.31296494     0.02500
C1347       C  0.73023000  0.24369943  0.32983873     0.12400
C1348       C  0.73762173  0.29122062  0.36378306     0.63000
H1349       H  0.78645751  0.32929531  0.35519547     0.12400
C1350       C  0.82144430  0.28535743  0.29655756     0.55200
H1351       H  0.77201723  0.24909195  0.30276686     0.08200
C1352       C  0.71390045  0.23502780  0.30093062    -0.05600
C1353       C  0.69181288  0.21091570  0.30265361    -0.06300
C1354       C  0.68580836  0.19526954  0.33205430    -0.15900
C1355       C  0.70182900  0.20445954  0.36142440    -0.01500
C1356       C  0.72400422  0.22845195  0.35947548    -0.09000
C1357       C  0.72000603  0.25100820  0.26828403     0.65200
H1358       H  0.67933029  0.20377954  0.28053303     0.10700
C1359       C  0.69550164  0.18947613  0.39500229     0.63600
H1360       H  0.73704981  0.23541836  0.38103202     0.08000
F1361       F  0.81274837  0.26102183  0.28420563    -0.19400
F1362       F  0.84001007  0.29010386  0.32075657    -0.15600
F1363       F  0.83186483  0.30197274  0.26896927    -0.19100
F1364       F  0.73015895  0.27503287  0.39197572    -0.22500
F1365       F  0.71701130  0.28381566  0.34223287    -0.24000
F1366       F  0.74500818  0.31543067  0.37553011    -0.18000
F1367       F  0.71119659  0.20395757  0.42158904    -0.20500
F1368       F  0.69852687  0.16852513  0.39097784    -0.21600
F1369       F  0.67068879  0.18160826  0.40465615    -0.18800
F1370       F  0.70085097  0.23967160  0.24405363    -0.18900
F1371       F  0.74222527  0.25429229  0.25365852    -0.22700
F1372       F  0.72301768  0.27457052  0.27591933    -0.24300
C1373       C  0.83902703  0.40160153  0.18801114    -0.11100
C1374       C  0.85916045  0.42566876  0.17850526     0.11400
C1375       C  0.88106371  0.43792088  0.19964191    -0.03000
C1376       C  0.88205062  0.42537610  0.22963051    -0.05700
C1377       C  0.86205601  0.40126515  0.23882397    -0.16500
C1378       C  0.84029511  0.38894602  0.21778299     0.02500
C1379       C  0.85712796  0.43734689  0.14580195     0.12400
C1380       C  0.90320239  0.46412446  0.19073871     0.63000
H1381       H  0.89842526  0.43446893  0.24654995     0.12400
C1382       C  0.81883380  0.36251779  0.22679051     0.55200
H1383       H  0.82235751  0.39269631  0.17163658     0.08200
C1384       C  0.86104926  0.42927009  0.11339359    -0.05600
C1385       C  0.86022754  0.44207963  0.08362234    -0.06300
C1386       C  0.85753754  0.46374264  0.08532718    -0.15900
C1387       C  0.85262218  0.47122096  0.11780513    -0.01500
C1388       C  0.85191941  0.45736704  0.14745311    -0.09000
C1389       C  0.86716747  0.40793723  0.11032995     0.65200
H1390       H  0.86314467  0.43600801  0.05868837     0.10700
C1391       C  0.87746052  0.00705702  0.13475425     0.63600
H1392       H  0.84832686  0.46272209  0.17253665     0.08000
F1393       F  0.79945840  0.35369354  0.20275423    -0.19400
F1394       F  0.80877157  0.36279986  0.25867200    -0.15600
F1395       F  0.82807288  0.34580985  0.22790389    -0.19100
F1396       F  0.89549659  0.48199407  0.19273131    -0.22500
F1397       F  0.91185223  0.46421422  0.15772689    -0.24000
F1398       F  0.92340330  0.47136578  0.21312412    -0.18000
F1399       F  0.86103075  0.01429661  0.12086615    -0.20500
F1400       F  0.90100960  0.02035729  0.11890169    -0.21600
F1401       F  0.83897137  0.49422385  0.15403990    -0.18800
F1402       F  0.87237268  0.40457896  0.07662508    -0.18900
F1403       F  0.84676031  0.38530695  0.12170263    -0.22700
F1404       F  0.88829252  0.41346029  0.12998508    -0.24300
O1405       O  0.91746620  0.89635250  0.31982238    -0.73700
O1406       O  0.85461726  0.83335021  0.31995302    -0.73700
O1407       O  0.87681716  0.87498722  0.27761261    -0.73800
O1408       O  0.89568376  0.85568721  0.36246400    -0.73800
O1409       O  0.87736034  0.87363340  0.39149628    -0.73800
O1410       O  0.85807134  0.89232784  0.30759421    -0.73700
O1411       O  0.83608908  0.85082940  0.34958958    -0.73700
O1412       O  0.89906458  0.91442885  0.34919196    -0.73800
Ni1413     Ni  0.88667084  0.86432791  0.31887587     1.25400
Ni1414     Ni  0.86690296  0.88332423  0.35053272     1.25400
C1415       C  0.91858053  0.91567333  0.33451761     0.88500
C1416       C  0.83485957  0.83143098  0.33461061     0.88400
C1417       C  0.86490177  0.88748429  0.27877165     0.88400
C1418       C  0.89040946  0.86241629  0.39123749     0.88600
O1419       O  0.58323631  0.60389865  0.31097733    -0.73700
O1420       O  0.64748506  0.66592810  0.31568735    -0.73700
O1421       O  0.62560319  0.62603957  0.27141644    -0.73800
O1422       O  0.60498959  0.64372266  0.35500438    -0.73800
O1423       O  0.62104747  0.62389192  0.38529985    -0.73800
O1424       O  0.64147366  0.60596235  0.30126005    -0.73700
O1425       O  0.66346129  0.64584288  0.34548860    -0.73700
O1426       O  0.59939396  0.58406763  0.34149250    -0.73800
Ni1427     Ni  0.61481261  0.63564150  0.31217408     1.25400
Ni1428     Ni  0.63197886  0.61428159  0.34444222     1.25400
C1429       C  0.58085866  0.58381001  0.32547591     0.88500
C1430       C  0.66604686  0.66624949  0.33192143     0.88400
C1431       C  0.63635935  0.61254172  0.27219075     0.88400
C1432       C  0.60927527  0.63650734  0.38399780     0.88600
O1433       O  0.97794066  0.89579992  0.68771743    -0.73700
O1434       O  0.98076715  0.83434581  0.68320627    -0.73700
O1435       O  0.99545083  0.87235154  0.72986714    -0.73800
O1436       O  0.96328110  0.85793463  0.64122167    -0.73800
O1437       O  0.50132149  0.87899449  0.61583972    -0.73800
O1438       O  0.53342808  0.89330610  0.70420858    -0.73700
O1439       O  0.51874601  0.85536592  0.65795992    -0.73700
O1440       O  0.51576506  0.91673579  0.66215283    -0.73800
Ni1441     Ni  0.97800846  0.86432238  0.68642321     1.25400
Ni1442     Ni  0.51866321  0.88682019  0.65916081     1.25400
C1443       C  0.99619869  0.91648891  0.67542407     0.88500
C1444       C  0.00019763  0.83462706  0.66992785     0.88400
C1445       C  0.51985981  0.88530624  0.73160716     0.88400
C1446       C  0.97694849  0.86623499  0.61390643     0.88600
O1447       O  0.52579115  0.60815439  0.68407427    -0.73700
O1448       O  0.52876186  0.67279683  0.67674237    -0.73700
O1449       O  0.51119942  0.63457582  0.72461913    -0.73800
O1450       O  0.54400427  0.64629844  0.63686683    -0.73800
O1451       O  0.00613465  0.62706452  0.61094492    -0.73800
O1452       O  0.97322992  0.61637831  0.69896980    -0.73700
O1453       O  0.99114862  0.65387895  0.65066700    -0.73700
O1454       O  0.98779584  0.58981153  0.65908093    -0.73800
Ni1455     Ni  0.52880547  0.64123427  0.68151529     1.25400
Ni1456     Ni  0.98826321  0.62123350  0.65398199     1.25400
C1457       C  0.50612625  0.58813537  0.67295560     0.88500
C1458       C  0.51042255  0.67397380  0.66203935     0.88400
C1459       C  0.98681852  0.62285979  0.72630871     0.88400
C1460       C  0.53049401  0.63796625  0.60966746     0.88600
O1461       O  0.91622826  0.52283862  0.01496211    -0.73700
O1462       O  0.85252458  0.52193277  0.00969775    -0.73700
O1463       O  0.87362264  0.50306776  0.05415846    -0.73800
O1464       O  0.89583568  0.54201489  0.97038135    -0.73800
O1465       O  0.87629716  0.00248136  0.94824600    -0.73800
O1466       O  0.85543731  0.96751910  0.03556216    -0.73700
O1467       O  0.83586756  0.98814906  0.99103520    -0.73700
O1468       O  0.89529304  0.98144873  0.99261735    -0.73800
Ni1469     Ni  0.88503301  0.52376448  0.01335646     1.25400
Ni1470     Ni  0.86489644  0.98360345  0.99087214     1.25400
C1471       C  0.91822554  0.50496596  0.00053526     0.88500
C1472       C  0.83388386  0.50386472  0.99349173     0.88400
C1473       C  0.86337679  0.98018408  0.06366650     0.88400
C1474       C  0.89236773  0.53066537  0.94139251     0.88600
O1475       O  0.58154568  0.97632838  0.02115676    -0.73700
O1476       O  0.64611825  0.97916528  0.02101765    -0.73700
O1477       O  0.62272074  0.99697439  0.06276432    -0.73800
O1478       O  0.60458964  0.95846509  0.97884568    -0.73200
O1479       O  0.62190590  0.49818728  0.94236664    -0.73800
O1480       O  0.64097566  0.53335742  0.02857683    -0.73700
O1481       O  0.66238150  0.51438026  0.98516825    -0.73700
O1482       O  0.60086693  0.51734145  0.98552676    -0.73800
Ni1483     Ni  0.61320210  0.97641919  0.02201001     1.25400
Ni1484     Ni  0.63230476  0.51712138  0.98444491     1.25400
C1485       C  0.58064392  0.49886223  0.99857653     0.88500
C1486       C  0.66304646  0.49560516  0.99935613     0.88400
C1487       C  0.63350881  0.52062538  0.05676562     0.88400
C1488       C  0.60941693  0.97014903  0.94971885     0.88600
C1489       C  0.51888571  0.99300168  0.97784078    -0.11100
C1490       C  0.51270004  0.50407575  0.99744926     0.11400
C1491       C  0.53507648  0.52321315  0.01329489    -0.03000
C1492       C  0.55697944  0.52086432  0.01285605    -0.05700
C1493       C  0.55685938  0.49985439  0.99775546    -0.16500
C1494       C  0.54234290  0.99371674  0.97530364     0.02500
C1495       C  0.98868127  0.50483565  0.99764690     0.12400
C1496       C  0.53565048  0.54579808  0.03090050     0.63000
H1497       H  0.57432452  0.53522082  0.02488171     0.12400
C1498       C  0.55382040  0.99507016  0.94001559     0.55200
H1499       H  0.00983169  0.99495647  0.95470860     0.08200
C1500       C  0.98530718  0.01772777  0.00581575    -0.05600
C1501       C  0.96241295  0.01822641  0.00498777    -0.06300
C1502       C  0.94267082  0.50541802  0.00103318    -0.15900
C1503       C  0.95021009  0.49599503  0.02932472    -0.01500
C1504       C  0.97333607  0.49604313  0.02723580    -0.09000
C1505       C  0.01051144  0.04239915  0.00214328     0.65200
H1506       H  0.96290772  0.03616199  0.00126232     0.10700
C1507       C  0.93323144  0.48479226  0.06067939     0.63600
H1508       H  0.97951438  0.48883918  0.04852281     0.08000
F1509       F  0.57593796  0.01818939  0.93597875    -0.19400
F1510       F  0.53743201  0.99277902  0.91368636    -0.15600
F1511       F  0.55920839  0.97557510  0.93668921    -0.19100
F1512       F  0.51898958  0.53746655  0.05854843    -0.22500
F1513       F  0.52858615  0.55862079  0.00794310    -0.24000
F1514       F  0.55964866  0.56283317  0.04312505    -0.18000
F1515       F  0.94409177  0.47673944  0.08547080    -0.20500
F1516       F  0.91058101  0.46405033  0.05060763    -0.21600
F1517       F  0.92844809  0.50269268  0.07538614    -0.18800
F1518       F  0.00724495  0.06337912  0.00060774    -0.18900
F1519       F  0.02271420  0.04206163  0.97223542    -0.22700
F1520       F  0.02586728  0.04534582  0.03006687    -0.24300
C1521       C  0.72002180  0.98326855  0.01538311    -0.11100
C1522       C  0.73578703  0.49833115  0.99585776     0.11400
C1523       C  0.73387586  0.52013976  0.98862154    -0.03000
C1524       C  0.70986235  0.51824584  0.99050694    -0.05700
C1525       C  0.68758796  0.49527306  0.99896580    -0.16500
C1526       C  0.69494789  0.97895486  0.01511983     0.02500
C1527       C  0.76073050  0.49922964  0.99580447     0.12400
C1528       C  0.75715827  0.54531370  0.97879968     0.63000
H1529       H  0.70843705  0.53503269  0.98533812     0.12400
C1530       C  0.67318786  0.95224261  0.02268577     0.55200
H1531       H  0.72357330  0.96785767  0.02130424     0.08200
C1532       C  0.78057805  0.01261692  0.03819255    -0.05600
C1533       C  0.80384857  0.01281165  0.03592032    -0.06300
C1534       C  0.80886685  0.50261904  0.99290796    -0.15900
C1535       C  0.79499249  0.49931064  0.96209298    -0.01500
C1536       C  0.77100727  0.49759306  0.96416830    -0.09000
C1537       C  0.77066240  0.01509901  0.07308949     0.65200
H1538       H  0.81456477  0.01452894  0.05904846     0.10700
C1539       C  0.80577465  0.49846654  0.92711031     0.63600
H1540       H  0.76004257  0.49506658  0.94102820     0.08000
F1541       F  0.66127377  0.95207183  0.05317286    -0.19400
F1542       F  0.68154193  0.93489460  0.02624459    -0.15600
F1543       F  0.65587732  0.94407688  0.99591552    -0.19100
F1544       F  0.76734322  0.54265650  0.94827864    -0.22500
F1545       F  0.77530610  0.55286968  0.00438962    -0.24000
F1546       F  0.75131298  0.56444222  0.97417124    -0.18000
F1547       F  0.80712108  0.47647687  0.92435805    -0.20500
F1548       F  0.82984460  0.51939783  0.92319172    -0.21600
F1549       F  0.79082889  0.49878306  0.90038420    -0.18800
F1550       F  0.78777044  0.01911692  0.09922765    -0.18900
F1551       F  0.74813838  0.99310672  0.08071996    -0.22700
F1552       F  0.76634256  0.03539233  0.07269556    -0.24300
C1553       C  0.94259725  0.60687759  0.80368722    -0.11100
C1554       C  0.94900866  0.59103646  0.82244057     0.11400
C1555       C  0.96894199  0.58723347  0.81061598    -0.03000
C1556       C  0.98159373  0.59926116  0.77993101    -0.05700
C1557       C  0.97447866  0.61415553  0.76034636    -0.16500
C1558       C  0.95513640  0.61866494  0.77263131     0.02500
C1559       C  0.93321265  0.57688557  0.85275402     0.12400
C1560       C  0.97620845  0.56979101  0.82954855     0.63000
H1561       H  0.99643865  0.59603974  0.76994689     0.12400
C1562       C  0.94821413  0.63617214  0.75341455     0.55200
H1563       H  0.92717046  0.60936862  0.81315043     0.08200
C1564       C  0.93746372  0.58760043  0.88597641    -0.05600
C1565       C  0.92295026  0.57204812  0.91373724    -0.06300
C1566       C  0.90461603  0.54609432  0.90946861    -0.15900
C1567       C  0.89994905  0.53575807  0.87549670    -0.01500
C1568       C  0.91408746  0.55166537  0.84782045    -0.09000
C1569       C  0.95745216  0.61523805  0.89201125     0.65200
H1570       H  0.92651193  0.58008207  0.93936554     0.10700
C1571       C  0.88081850  0.50808803  0.86782007     0.63600
H1572       H  0.91112647  0.54422986  0.82183583     0.08000
F1573       F  0.96988827  0.65945020  0.74767641    -0.19400
F1574       F  0.93113711  0.64035193  0.77190585    -0.15600
F1575       F  0.93723436  0.62558628  0.72214309    -0.19100
F1576       F  0.95626107  0.54501641  0.82855277    -0.22500
F1577       F  0.98191806  0.57717271  0.86352001    -0.24000
F1578       F  0.99725181  0.57029432  0.81483846    -0.18000
F1579       F  0.87816674  0.50323355  0.83277391    -0.20500
F1580       F  0.85716085  0.50194938  0.88064745    -0.21600
F1581       F  0.88881630  0.49247235  0.88249468    -0.18800
F1582       F  0.95900646  0.62178988  0.92642053    -0.18900
F1583       F  0.95143875  0.63093934  0.87330169    -0.22700
F1584       F  0.98110237  0.61958753  0.88166975    -0.24300
C1585       C  0.56692313  0.90088468  0.80519067    -0.11100
C1586       C  0.55769406  0.91171791  0.82888407     0.11400
C1587       C  0.53491130  0.91193111  0.82178162    -0.03000
C1588       C  0.52241475  0.90180852  0.79039314    -0.05700
C1589       C  0.53239848  0.89229120  0.76573793    -0.16500
C1590       C  0.55456201  0.89099860  0.77358522     0.02500
C1591       C  0.57366074  0.92537432  0.85904298     0.12400
C1592       C  0.52442843  0.92375982  0.84665180     0.63000
H1593       H  0.50541303  0.90250511  0.78405106     0.12400
C1594       C  0.56511849  0.87919020  0.74890561     0.55200
H1595       H  0.58446091  0.90112789  0.81111270     0.08200
C1596       C  0.57189681  0.91330438  0.89091465    -0.05600
C1597       C  0.58457162  0.92853255  0.91962220    -0.06300
C1598       C  0.59973987  0.95527004  0.91700395    -0.15900
C1599       C  0.60384103  0.96679171  0.88361406    -0.01500
C1600       C  0.59034170  0.95149745  0.85544825    -0.09000
C1601       C  0.55703421  0.88451683  0.89424404     0.65200
H1602       H  0.58228948  0.91951616  0.94451366     0.10700
C1603       C  0.61654234  0.50102293  0.87107581     0.63600
H1604       H  0.59194441  0.95997146  0.83027273     0.08000
F1605       F  0.58353564  0.87544039  0.76439190    -0.19400
F1606       F  0.57605220  0.89498830  0.72068800    -0.15600
F1607       F  0.54579192  0.85578219  0.73797005    -0.19100
F1608       F  0.54139688  0.94951532  0.84963849    -0.22500
F1609       F  0.52060734  0.91246862  0.87878076    -0.24000
F1610       F  0.00158113  0.92117335  0.83534392    -0.18000
F1611       F  0.61700872  0.50824469  0.83704349    -0.20500
F1612       F  0.64144216  0.50974502  0.88092494    -0.21600
F1613       F  0.60613766  0.51267822  0.89043164    -0.18800
F1614       F  0.55732069  0.87652483  0.92763939    -0.18900
F1615       F  0.56776514  0.87420326  0.87292414    -0.22700
F1616       F  0.53198369  0.87517915  0.88479025    -0.24300
C1617       C  0.49153792  0.76842632  0.68637522    -0.11100
C1618       C  0.00841265  0.76825337  0.66195844     0.11400
C1619       C  0.02174842  0.78916980  0.63941387    -0.03000
C1620       C  0.01830566  0.81026487  0.64298447    -0.05700
C1621       C  0.00162292  0.81087044  0.66775666    -0.16500
C1622       C  0.48775092  0.78935168  0.68982429     0.02500
C1623       C  0.51113565  0.74533176  0.66043180     0.12400
C1624       C  0.03937067  0.78910974  0.61159397     0.63000
H1625       H  0.02855020  0.82645906  0.62595541     0.12400
C1626       C  0.46920181  0.78819939  0.71713510     0.55200
H1627       H  0.48123263  0.75180090  0.70270787     0.08200
C1628       C  0.52654703  0.74120845  0.68384185    -0.05600
C1629       C  0.52638441  0.71799097  0.68261948    -0.06300
C1630       C  0.51111978  0.69879305  0.65910185    -0.15900
C1631       C  0.99666909  0.70371844  0.63428180    -0.01500
C1632       C  0.99672453  0.72686563  0.63590535    -0.09000
C1633       C  0.54231949  0.76085371  0.71084626     0.65200
H1634       H  0.53749006  0.71430540  0.70116890     0.10700
C1635       C  0.98134243  0.68505186  0.60596818     0.63600
H1636       H  0.98504070  0.73060124  0.61842276     0.08000
F1637       F  0.45956959  0.76629201  0.73703307    -0.19400
F1638       F  0.44882089  0.78838213  0.70150206    -0.15600
F1639       F  0.48133528  0.80874261  0.73905829    -0.19100
F1640       F  0.02561699  0.76977911  0.58848182    -0.22500
F1641       F  0.05801895  0.78539564  0.62622384    -0.24000
F1642       F  0.05125414  0.81181822  0.59334649    -0.18000
F1643       F  0.97293549  0.69591444  0.58161965    -0.20500
F1644       F  0.96015019  0.66425431  0.61997938    -0.21600
F1645       F  0.99623873  0.67717017  0.58899064    -0.18800
F1646       F  0.55814452  0.75436847  0.72836752    -0.18900
F1647       F  0.52638473  0.76279010  0.73457515    -0.22700
F1648       F  0.55739098  0.78433606  0.69549494    -0.24300
C1649       C  0.97458349  0.96584712  0.68458991    -0.11100
C1650       C  0.49696960  0.98803027  0.67495937     0.11400
C1651       C  0.51901196  0.98695064  0.66637565    -0.03000
C1652       C  0.51780348  0.96325642  0.66728341    -0.05700
C1653       C  0.99525549  0.94062893  0.67629818    -0.16500
C1654       C  0.97307305  0.94194988  0.68499936     0.02500
C1655       C  0.99693916  0.51283838  0.67422965     0.12400
C1656       C  0.53285630  0.50532208  0.63013608     0.63000
H1657       H  0.53472119  0.96238671  0.66090678     0.12400
C1658       C  0.94773085  0.91864939  0.69427357     0.55200
H1659       H  0.95821656  0.96754124  0.69168497     0.08200
C1660       C  0.98056068  0.51819943  0.65471270    -0.05600
C1661       C  0.98443995  0.54298685  0.65523478    -0.06300
C1662       C  0.50396808  0.56252435  0.67492662    -0.15900
C1663       C  0.51993656  0.55673019  0.69538233    -0.01500
C1664       C  0.51586996  0.53176198  0.69481370    -0.09000
C1665       C  0.97354414  0.00205449  0.61704534     0.65200
H1666       H  0.97216652  0.54721320  0.63979666     0.10700
C1667       C  0.54123481  0.57638804  0.71763171     0.63600
H1668       H  0.52782513  0.52682261  0.70984038     0.08000
F1669       F  0.93985509  0.90122155  0.66772240    -0.19400
F1670       F  0.92878454  0.92465480  0.69962748    -0.15600
F1671       F  0.95014089  0.90772567  0.72436077    -0.19100
F1672       F  0.55019386  0.52416910  0.65149341    -0.22500
F1673       F  0.52207169  0.51554172  0.60862598    -0.24000
F1674       F  0.56246194  0.00522454  0.64712868    -0.18000
F1675       F  0.55299415  0.56587469  0.73673283    -0.20500
F1676       F  0.53161152  0.58686758  0.74054626    -0.21600
F1677       F  0.55959877  0.59527936  0.69694332    -0.18800
F1678       F  0.94625391  0.50745135  0.61485332    -0.18900
F1679       F  0.95248937  0.97965837  0.62771478    -0.22700
F1680       F  0.99067070  0.99650689  0.60145844    -0.24300
C1681       C  0.57018314  0.64792289  0.45153316    -0.11100
C1682       C  0.58334144  0.64889150  0.48160029     0.11400
C1683       C  0.60578919  0.64733596  0.47948657    -0.03000
C1684       C  0.61411865  0.64443425  0.44686642    -0.05700
C1685       C  0.60049140  0.64251828  0.41662322    -0.16500
C1686       C  0.57823913  0.64471360  0.41888237     0.02500
C1687       C  0.57067299  0.64727307  0.51492338     0.12400
C1688       C  0.62050225  0.64805018  0.51157792     0.63000
H1689       H  0.63111570  0.64297609  0.44486375     0.12400
C1690       C  0.56216475  0.64248176  0.38760994     0.55200
H1691       H  0.55282521  0.64866927  0.45416364     0.08200
C1692       C  0.57184081  0.66866502  0.53118414    -0.05600
C1693       C  0.55835495  0.66490408  0.56228114    -0.06300
C1694       C  0.54335772  0.64050423  0.57648728    -0.15900
C1695       C  0.54197152  0.61914376  0.55990625    -0.01500
C1696       C  0.55554476  0.62293185  0.52909286    -0.09000
C1697       C  0.58675526  0.69511116  0.51544052     0.65200
H1698       H  0.55911684  0.68091433  0.57556002     0.10700
C1699       C  0.52698980  0.59261443  0.57535352     0.63600
H1700       H  0.55459301  0.60686407  0.51571766     0.08000
F1701       F  0.57592779  0.66271688  0.36538758    -0.19400
F1702       F  0.54024880  0.64280684  0.39661151    -0.15600
F1703       F  0.55489048  0.61982170  0.37079912    -0.19100
F1704       F  0.60545223  0.62759243  0.53280370    -0.22500
F1705       F  0.62790682  0.67029403  0.52942416    -0.24000
F1706       F  0.64217241  0.64697426  0.50354138    -0.18000
F1707       F  0.50155540  0.58546460  0.57780319    -0.20500
F1708       F  0.53626313  0.59242278  0.60781194    -0.21600
F1709       F  0.52888367  0.57470638  0.55556121    -0.18800
F1710       F  0.58618649  0.71330329  0.53622077    -0.18900
F1711       F  0.57646010  0.69560123  0.48388082    -0.22700
F1712       F  0.61187923  0.70170703  0.51075254    -0.24300
C1713       C  0.63751837  0.59482090  0.17762012    -0.11100
C1714       C  0.64579986  0.57720279  0.18140286     0.11400
C1715       C  0.65482541  0.57430858  0.21362364    -0.03000
C1716       C  0.65236527  0.58707464  0.24224352    -0.05700
C1717       C  0.64180536  0.60311359  0.23943266    -0.16500
C1718       C  0.63551200  0.60814884  0.20591214     0.02500
C1719       C  0.64326274  0.56108534  0.15134776     0.12400
C1720       C  0.66695767  0.55780353  0.21758940     0.63000
H1721       H  0.65821013  0.58401637  0.26731407     0.12400
C1722       C  0.62638486  0.62701758  0.19927708     0.55200
H1723       H  0.63156531  0.59719364  0.15221149     0.08200
C1724       C  0.61972300  0.53919891  0.14348805    -0.05600
C1725       C  0.61776203  0.52597500  0.11295729    -0.06300
C1726       C  0.63832628  0.53417467  0.09001202    -0.15900
C1727       C  0.66220094  0.55541955  0.09870114    -0.01500
C1728       C  0.66416292  0.56869590  0.12927897    -0.09000
C1729       C  0.59661655  0.53028559  0.16684589     0.65200
H1730       H  0.59966503  0.50959570  0.10598511     0.10700
C1731       C  0.68556825  0.56378286  0.07621701     0.63600
H1732       H  0.68196702  0.58558279  0.13585168     0.08000
F1733       F  0.60261573  0.61821880  0.21384920    -0.19400
F1734       F  0.62436219  0.63062201  0.16439593    -0.15600
F1735       F  0.64350988  0.65043920  0.21295929    -0.19100
F1736       F  0.68842994  0.56737441  0.19699015    -0.22500
F1737       F  0.65009610  0.53311809  0.20780315    -0.24000
F1738       F  0.67419580  0.55725239  0.25127025    -0.18000
F1739       F  0.70753314  0.58150702  0.09268111    -0.20500
F1740       F  0.68289982  0.07434708  0.04643484    -0.21600
F1741       F  0.68949654  0.04466478  0.07194699    -0.18800
F1742       F  0.57609515  0.50781647  0.15542829    -0.18900
F1743       F  0.58933054  0.54850857  0.16782727    -0.22700
F1744       F  0.60233349  0.52616110  0.19988682    -0.24300
C1745       C  0.90915206  0.86424649  0.48607041    -0.11100
C1746       C  0.92751539  0.85690753  0.48327546     0.11400
C1747       C  0.93138351  0.84820914  0.45141402    -0.03000
C1748       C  0.91831424  0.84962163  0.42224593    -0.05700
C1749       C  0.90089411  0.85857663  0.42427500    -0.16500
C1750       C  0.89541134  0.86499480  0.45738225     0.02500
C1751       C  0.94214642  0.85864627  0.51472944     0.12400
C1752       C  0.94881650  0.83705147  0.44854495     0.63000
H1753       H  0.92198689  0.84398994  0.39743913     0.12400
C1754       C  0.87544785  0.87278348  0.46325923     0.55200
H1755       H  0.90613949  0.87002929  0.51120786     0.08200
C1756       C  0.96390719  0.88173443  0.52437527    -0.05600
C1757       C  0.97517038  0.88291923  0.55647256    -0.06300
C1758       C  0.96474460  0.86225631  0.57962822    -0.15900
C1759       C  0.94307108  0.83904151  0.56973245    -0.01500
C1760       C  0.93221757  0.83766656  0.53717412    -0.09000
C1761       C  0.97446975  0.90536044  0.50160388     0.65200
H1762       H  0.99162771  0.90052666  0.56447438     0.10700
C1763       C  0.93144848  0.81577183  0.59312185     0.63600
H1764       H  0.91526542  0.82041722  0.52937615     0.08000
F1765       F  0.88330496  0.89633506  0.44840500    -0.19400
F1766       F  0.87132654  0.87462959  0.49798254    -0.15600
F1767       F  0.85247144  0.85479150  0.44931716    -0.19100
F1768       F  0.93961188  0.81564048  0.46927731    -0.22500
F1769       F  0.97312609  0.85450917  0.45904564    -0.24000
F1770       F  0.95027099  0.83004967  0.41507860    -0.18000
F1771       F  0.92004305  0.81995026  0.62124860    -0.20500
F1772       F  0.95012234  0.81072189  0.60430799    -0.21600
F1773       F  0.41298742  0.79444420  0.57637277    -0.18800
F1774       F  0.99638274  0.92539934  0.51520794    -0.18900
F1775       F  0.95663073  0.91303945  0.49834838    -0.22700
F1776       F  0.98031065  0.90029974  0.46924728    -0.24300
C1777       C  0.98489306  0.96870881  0.35582229    -0.11100
C1778       C  0.98869677  0.98637250  0.32972367     0.11400
C1779       C  0.96971778  0.98033727  0.30443625    -0.03000
C1780       C  0.94673751  0.95712845  0.30731809    -0.05700
C1781       C  0.94274823  0.93983387  0.33391470    -0.16500
C1782       C  0.96207696  0.94530873  0.35829569     0.02500
C1783       C  0.50974669  0.51374589  0.32610121     0.12400
C1784       C  0.96361047  0.50801092  0.29014591     0.63000
H1785       H  0.93180642  0.95206386  0.28850089     0.12400
C1786       C  0.95842468  0.92646702  0.38669609     0.55200
H1787       H  0.49985324  0.97356539  0.37455507     0.08200
C1788       C  0.51695337  0.53041950  0.35460242    -0.05600
C1789       C  0.54017812  0.55350083  0.35304882    -0.06300
C1790       C  0.55628806  0.55995125  0.32432765    -0.15900
C1791       C  0.54936256  0.54310091  0.29614397    -0.01500
C1792       C  0.52598165  0.52014884  0.29745456    -0.09000
C1793       C  0.49423676  0.02829004  0.37546558     0.65200
H1794       H  0.54619555  0.56657222  0.37452893     0.10700
C1795       C  0.56691530  0.54924929  0.26530279     0.63600
H1796       H  0.02022781  0.50680871  0.27623685     0.08000
F1797       F  0.93735068  0.92130985  0.40636836    -0.19400
F1798       F  0.97927520  0.93575079  0.40832174    -0.15600
F1799       F  0.95483558  0.90410734  0.37231771    -0.19100
F1800       F  0.97951071  0.51394258  0.26187233    -0.22500
F1801       F  0.97229625  0.52926844  0.31070521    -0.24000
F1802       F  0.95248423  0.98918128  0.25384167    -0.18000
F1803       F  0.55662571  0.53038801  0.24058962    -0.20500
F1804       F  0.58981063  0.55176290  0.27588021    -0.21600
F1805       F  0.57132030  0.57177927  0.25024255    -0.18800
F1806       F  0.51027787  0.54305130  0.41057074    -0.18900
F1807       F  0.48883117  0.00930745  0.39942171    -0.22700
F1808       F  0.47259065  0.02193160  0.35655665    -0.24300
C1809       C  0.78141313  0.76322826  0.31538330    -0.11100
C1810       C  0.76196712  0.76154251  0.33653295     0.11400
C1811       C  0.76661884  0.78211501  0.35805551    -0.03000
C1812       C  0.79058910  0.80440100  0.35645315    -0.05700
C1813       C  0.81022038  0.80662419  0.33461501    -0.16500
C1814       C  0.80553799  0.78533923  0.31380251     0.02500
C1815       C  0.73696160  0.73766746  0.33562783     0.12400
C1816       C  0.74639819  0.78038879  0.38283670     0.63000
H1817       H  0.79417599  0.82024521  0.37274863     0.12400
C1818       C  0.82538538  0.78545958  0.28968008     0.55200
H1819       H  0.77732210  0.74684829  0.29988140     0.08200
C1820       C  0.71917297  0.73272531  0.30905900    -0.05600
C1821       C  0.69632892  0.70924955  0.30903919    -0.06300
C1822       C  0.69075414  0.69057963  0.33453067    -0.15900
C1823       C  0.70854064  0.69592656  0.36166746    -0.01500
C1824       C  0.73153351  0.71932307  0.36124980    -0.09000
C1825       C  0.72449986  0.75204602  0.28056347     0.65200
H1826       H  0.68277783  0.70512588  0.28846860     0.10700
C1827       C  0.70340379  0.67760014  0.39149414     0.63600
H1828       H  0.74570488  0.72354603  0.38098362     0.08000
F1829       F  0.81594191  0.76309372  0.27119237    -0.19400
F1830       F  0.84588982  0.78809844  0.30854171    -0.15600
F1831       F  0.83335749  0.80518529  0.26610188    -0.19100
F1832       F  0.74095684  0.76160894  0.40714722    -0.22500
F1833       F  0.72442898  0.77457172  0.36508331    -0.24000
F1834       F  0.75428028  0.80301450  0.40010184    -0.18000
F1835       F  0.72158189  0.68844307  0.41707664    -0.20500
F1836       F  0.70370143  0.65625624  0.37985198    -0.21600
F1837       F  0.68002341  0.67056227  0.40626279    -0.18800
F1838       F  0.70376572  0.74444371  0.25907672    -0.18900
F1839       F  0.74479705  0.75514091  0.26074624    -0.22700
F1840       F  0.73029591  0.77521123  0.29460200    -0.24300
C1841       C  0.83652364  0.91121151  0.21015761    -0.11100
C1842       C  0.85735131  0.92401799  0.18778434     0.11400
C1843       C  0.88021927  0.92391120  0.19468046    -0.03000
C1844       C  0.88132011  0.91061130  0.22379979    -0.05700
C1845       C  0.86069694  0.89820232  0.24665578    -0.16500
C1846       C  0.83774042  0.89820294  0.23963282     0.02500
C1847       C  0.85493905  0.93757753  0.15725000     0.12400
C1848       C  0.90357758  0.93836294  0.17185847     0.63000
H1849       H  0.89883857  0.91076769  0.22983722     0.12400
C1850       C  0.81457442  0.88451481  0.26290579     0.55200
H1851       H  0.81935167  0.91185698  0.20458854     0.08200
C1852       C  0.84420319  0.92490832  0.12603023    -0.05600
C1853       C  0.84639373  0.93949650  0.09656009    -0.06300
C1854       C  0.85838705  0.96627819  0.09747499    -0.15900
C1855       C  0.86659295  0.97860644  0.13008724    -0.01500
C1856       C  0.86483892  0.96386601  0.15926920    -0.09000
C1857       C  0.83062164  0.89608765  0.12398746     0.65200
H1858       H  0.83921990  0.92989454  0.07224315     0.10700
C1859       C  0.84789886  0.49342411  0.12147201     0.63600
H1860       H  0.87212997  0.97289514  0.18392877     0.08000
F1861       F  0.79296169  0.88209525  0.24733495    -0.19400
F1862       F  0.81857506  0.89803526  0.29305706    -0.15600
F1863       F  0.81004923  0.86032096  0.27065968    -0.19100
F1864       F  0.91214777  0.96414253  0.17355885    -0.22500
F1865       F  0.89764980  0.93047498  0.13807259    -0.24000
F1866       F  0.92327077  0.93451719  0.18199414    -0.18000
F1867       F  0.82989121  0.49120991  0.09779999    -0.20500
F1868       F  0.87027363  0.51610977  0.11610974    -0.21600
F1869       F  0.88068886  0.01382771  0.16920105    -0.18800
F1870       F  0.82224071  0.88748864  0.09095300    -0.18900
F1871       F  0.80965957  0.88578766  0.14562133    -0.22700
F1872       F  0.84677688  0.88734504  0.13393574    -0.24300
loop_ 
_geom_bond_atom_site_label_1 
_geom_bond_atom_site_label_2 
_geom_bond_distance 
_geom_bond_site_symmetry_2 
_ccdc_geom_bond_type 
O1           Ni9   1.913       .  S
O1           C11   1.279       .  A
O2           Ni9   1.916       .  S
O2           C12   1.279       .  A
O3           Ni9   1.921       .  S
O3           C13   1.281       .  A
O4           Ni9   1.921       .  S
O4           C14   1.283       .  A
O5          Ni10   1.915       .  S
O5           C14   1.279       .  A
O6          Ni10   1.911       .  S
O6           C13   1.279       .  A
O7          Ni10   1.922       .  S
O7           C12   1.283       .  A
O8          Ni10   1.920       .  S
O8           C11   1.282       .  A
Ni9         Ni10   2.382       .  S
C11         C377   1.474       .  S
C12         C409   1.502       .  S
C13         C441   1.469       .  S
C14         C345   1.500       .  S
O15         Ni23   1.917       .  S
O15          C25   1.280       .  A
O16         Ni23   1.917       .  S
O16          C26   1.281       .  A
O17         Ni23   1.916       .  S
O17          C27   1.279       .  A
O18         Ni23   1.916       .  S
O18          C28   1.279       .  A
O19         Ni24   1.925       .  S
O19          C28   1.284       .  A
O20         Ni24   1.923       .  S
O20          C27   1.283       .  A
O21         Ni24   1.917       .  S
O21          C26   1.280       .  A
O22         Ni24   1.918       .  S
O22          C25   1.280       .  A
Ni23        Ni24   2.381       .  S
C25         C386   1.471       .  S
C26         C418   1.486       .  S
C27         C313   1.500       .  S
C28         C281   1.499       .  S
O29         Ni37   1.915       .  S
O29          C39   1.279       .  A
O30         Ni37   1.918       .  S
O30          C40   1.279       .  A
O31         Ni37   1.921       .  S
O31         C977   1.282       .  A
O32         Ni37   1.921       .  S
O32          C42   1.281       .  A
O33         Ni38   1.919   1_655  S
O33         C978   1.282       .  A
O34         Ni38   1.918       .  S
O34          C41   1.280       .  A
O35         Ni38   1.917       .  S
O35         C976   1.283   1_455  A
O36         Ni38   1.916       .  S
O36         C975   1.283   1_455  A
Ni37       Ni974   2.379       .  S
Ni38       Ni973   2.379   1_455  S
C39         O972   1.283       .  A
C39         C249   1.497       .  S
C40         O971   1.283       .  A
C40         C217   1.500       .  S
C41         O967   1.282   1_455  A
C41         C185   1.482       .  S
C42         O969   1.282       .  A
C42         C354   1.492       .  S
O43         Ni51   1.919       .  S
O43          C53   1.281   1_455  A
O44         Ni51   1.920       .  S
O44          C54   1.282       .  A
O45         Ni51   1.923       .  S
O45         C991   1.283   1_455  A
O46         Ni51   1.924       .  S
O46          C56   1.281       .  A
O47         Ni52   1.925       .  S
O47         C992   1.282       .  A
O48         Ni52   1.924       .  S
O48          C55   1.282       .  A
O49         Ni52   1.914       .  S
O49         C990   1.279       .  A
O50         Ni52   1.912       .  S
O50         C989   1.281       .  A
Ni51       Ni988   2.384   1_455  S
Ni52       Ni987   2.384       .  S
C53         O986   1.281       .  A
C53         C258   1.484       .  S
C54         O985   1.279   1_455  A
C54         C226   1.484       .  S
C55         O981   1.283       .  A
C55         C153   1.493       .  S
C56         O983   1.282   1_455  A
C56         C290   1.482       .  S
O57         Ni65   1.921       .  S
O57          C67   1.283   1_545  A
O58         Ni65   1.925       .  S
O58          C68   1.282       .  A
O59         Ni65   1.915       .  S
O59         C537   1.278   1_545  A
O60         Ni65   1.918   1_556  S
O60          C70   1.283       .  A
O61         Ni66   1.918       .  S
O61         C538   1.280       .  A
O62         Ni66   1.920   1_554  S
O62          C69   1.283       .  A
O63         Ni66   1.916       .  S
O63         C536   1.279       .  A
O64         Ni66   1.912       .  S
O64         C535   1.279   1_556  A
Ni65       Ni534   2.380   1_544  S
Ni66       Ni533   2.384   1_556  S
C67         O532   1.279   1_554  A
C67          C98   1.486       .  S
C68         O531   1.279   1_544  A
C68         C130   1.480       .  S
C69         O527   1.279       .  A
C69         C450   1.488       .  S
C70         O529   1.282       .  A
C70         C162   1.501       .  S
O71         Ni79   1.919       .  S
O71         C549   1.281   1_554  A
O72         Ni79   1.924       .  S
O72         C550   1.281   1_554  A
O73         Ni79   1.920       .  S
O73         C551   1.282       .  A
O74         Ni79   1.919   1_556  S
O74          C84   1.283       .  A
O75         Ni80   1.911   1_565  S
O75         C552   1.278       .  A
O76         Ni80   1.913   1_554  S
O76          C83   1.279       .  A
O77         Ni80   1.918       .  S
O77          C82   1.283   1_546  A
O78         Ni80   1.919       .  S
O78          C81   1.281   1_546  A
Ni79       Ni548   2.381   1_554  S
Ni80       Ni547   2.381   1_546  S
C81         O539   1.281       .  A
C81          C89   1.480       .  S
C82         O540   1.280       .  A
C82         C121   1.499       .  S
C83         O541   1.282   1_545  A
C83         C322   1.478       .  S
C84         O543   1.280       .  A
C84         C194   1.502       .  S
C85          C90   1.407       .  A
C85         C554   1.402       .  A
C85        H1031   1.083   1_455  S
C86        C1027   1.487   1_455  S
C86          C87   1.417       .  A
C86         C553   1.401   1_554  A
C87          C88   1.409       .  A
C87          C92   1.519       .  S
C88          C89   1.405       .  A
C88          H93   1.083       .  S
C89         C558   1.418   1_554  A
C90         C557   1.417       .  A
C90          C94   1.519       .  S
C91        C1022   1.486       .  S
C91         C100   1.401       .  A
C91         C564   1.416   1_565  A
C92         F108   1.382   1_455  S
C92         F109   1.382   1_565  S
C92         F110   1.385       .  S
C94         F105   1.383       .  S
C94         F106   1.385       .  S
C94         F107   1.382       .  S
H95        C1021   1.083       .  S
C96          C97   1.406       .  A
C96         C559   1.417       .  A
C96         C101   1.519       .  S
C97         C566   1.401   1_556  A
C97         H102   1.084       .  S
C98          C99   1.423       .  A
C98         C565   1.404   1_565  A
C99         C100   1.409       .  A
C99         C103   1.520       .  S
C100        H104   1.083       .  S
C101        F114   1.385       .  S
C101        F115   1.382       .  S
C101        F116   1.382       .  S
C103        F111   1.385       .  S
C103        F112   1.382   1_554  S
C103        F113   1.384       .  S
C117        C122   1.411       .  A
C117        C586   1.401   1_554  A
C117        H127   1.084       .  S
C118        C123   1.487       .  S
C118        C119   1.413   1_554  A
C118        C585   1.400   1_545  A
C119        C120   1.407       .  A
C119        C124   1.520       .  S
C120        C121   1.411   1_546  A
C120        H125   1.083       .  S
C121        C590   1.427       .  A
C122        C589   1.428   1_554  A
C122        C126   1.520       .  S
C123        C132   1.402   1_554  A
C123        C596   1.417       .  A
C124        F140   1.382       .  S
C124        F141   1.382   1_556  S
C124        F142   1.385       .  S
C126        F137   1.383       .  S
C126        F138   1.385       .  S
C126        F139   1.383   1_554  S
C128        C129   1.408       .  A
C128        C591   1.416   1_554  A
C128        C133   1.519       .  S
C129        C598   1.404   1_554  A
C129        H134   1.082       .  S
C130        C131   1.418   1_554  A
C130        C597   1.404       .  A
C131        C132   1.407       .  A
C131        C135   1.519       .  S
C132        H136   1.083       .  S
C133        F146   1.384       .  S
C133        F147   1.382       .  S
C133        F148   1.382       .  S
C135        F143   1.382   1_545  S
C135        F144   1.384       .  S
C135        F145   1.385       .  S
C149        C150   1.403       .  A
C149        C154   1.411       .  A
C149        H159   1.083       .  S
C150        C155   1.491       .  S
C150        C151   1.417       .  A
C151        C152   1.407       .  A
C151        C156   1.521       .  S
C152        C153   1.406       .  A
C152        H157   1.081       .  S
C153        C154   1.421       .  A
C154        C158   1.518       .  S
C155        C160   1.413       .  A
C155        C164   1.401       .  A
C156        F172   1.382       .  S
C156        F173   1.382       .  S
C156        F174   1.385       .  S
C158        F169   1.384       .  S
C158        F170   1.385       .  S
C158        F171   1.382       .  S
C160        C161   1.409       .  A
C160        C165   1.519       .  S
C161        C162   1.411       .  A
C161        H166   1.083       .  S
C162        C163   1.427       .  A
C163        C164   1.411       .  A
C163        C167   1.520       .  S
C164        H168   1.084       .  S
C165        F178   1.385       .  S
C165        F179   1.382       .  S
C165        F180   1.382       .  S
C167        F175   1.385   1_545  S
C167        F176   1.383   1_545  S
C167        F177   1.383   1_545  S
C181        C182   1.403       .  A
C181        C186   1.410       .  A
C181        H191   1.083       .  S
C182        C187   1.487       .  S
C182        C183   1.417       .  A
C183        C184   1.407       .  A
C183        C188   1.521       .  S
C184        C185   1.404       .  A
C184        H189   1.083       .  S
C185        C186   1.418       .  A
C186        C190   1.518       .  S
C187        C192   1.412       .  A
C187        C196   1.399       .  A
C188        F204   1.382       .  S
C188        F205   1.382       .  S
C188       F1142   1.384       .  S
C190        F201   1.385       .  S
C190        F202   1.382       .  S
C190        F203   1.384       .  S
C192        C193   1.408       .  A
C192        C197   1.519       .  S
C193        C194   1.412       .  A
C193        H198   1.083       .  S
C194        C195   1.430       .  A
C195        C196   1.409       .  A
C195        C667   1.522       .  S
C196        H200   1.084       .  S
C197        F210   1.384       .  S
C197        F211   1.382       .  S
C197        F212   1.382       .  S
C199        C663   1.522       .  S
C199        F207   1.385   1_565  S
C199        F208   1.384   1_565  S
C199        F209   1.383   1_565  S
F206       C1124   1.384       .  S
C213        C218   1.407       .  A
C213       C1150   1.398   1_655  A
C213        H223   1.083       .  S
C214       C1155   1.483       .  S
C214        C215   1.411       .  A
C214       C1149   1.398       .  A
C215        C216   1.407       .  A
C215        C220   1.520       .  S
C216        C217   1.413       .  A
C216        H221   1.082       .  S
C217       C1154   1.429       .  A
C218       C1153   1.429       .  A
C218        C222   1.522       .  S
C219       C1150   1.483       .  S
C219        C224   1.415       .  A
C219       C1164   1.401   1_455  A
C220        F236   1.382       .  S
C220        F237   1.381       .  S
C220        F238   1.385       .  S
C222        F233   1.385       .  S
C222        F234   1.382       .  S
C222        F235   1.383       .  S
C224        C225   1.407       .  A
C224        C229   1.520       .  S
C225        C226   1.406       .  A
C225        H230   1.083       .  S
C226       C1163   1.422   1_455  A
C227        C228   1.407       .  A
C227       C1162   1.422       .  A
C227        C231   1.520       .  S
C228       C1155   1.401       .  A
C228        H232   1.083       .  S
C229        F242   1.385       .  S
C229        F243   1.382       .  S
C229        F244   1.381       .  S
C231        F239   1.385       .  S
C231        F240   1.383       .  S
C231        F241   1.383       .  S
C245        C250   1.409       .  A
C245       C1182   1.398       .  A
C245        H255   1.084       .  S
C246       C1655   1.481       .  S
C246        C247   1.412   1_655  A
C246       C1181   1.398       .  A
C247        C248   1.403       .  A
C247        C720   1.521       .  S
C248       C1185   1.410   1_455  A
C248        H253   1.083       .  S
C249        C250   1.429       .  A
C249       C1184   1.410       .  A
C250        C254   1.521       .  S
C251       C1650   1.479   1_545  S
C251        C256   1.413       .  A
C251       C1196   1.400       .  A
C252        C715   1.521   1_545  S
C252        F268   1.382       .  S
C252        F269   1.382       .  S
C252        F738   1.384       .  S
C254        F265   1.384       .  S
C254        F266   1.385       .  S
C254        F267   1.383       .  S
C256        C257   1.404       .  A
C256        C729   1.520       .  S
C257       C1194   1.407       .  A
C257        H262   1.082       .  S
C258        C259   1.421   1_655  A
C258       C1193   1.407       .  A
C259        C260   1.405       .  A
C259        C263   1.518       .  S
C260       C1187   1.400   1_455  A
C260        H264   1.084       .  S
C261        C724   1.521       .  S
C261        F275   1.382       .  S
C261        F276   1.382       .  S
C261        F742   1.385       .  S
C263        F271   1.385       .  S
C263        F272   1.381       .  S
C263        F273   1.383       .  S
F270        C720   1.384       .  S
F274        C729   1.385       .  S
C277        C278   1.399       .  A
C277        C282   1.410       .  A
C277        H287   1.082       .  S
C278        C283   1.488       .  S
C278        C279   1.414       .  A
C279        C280   1.408       .  A
C279        C284   1.520       .  S
C280        C281   1.410       .  A
C280        H285   1.082       .  S
C281        C282   1.428       .  A
C282        C286   1.521       .  S
C283        C288   1.417       .  A
C283        C292   1.400       .  A
C284        F300   1.382       .  S
C284        F301   1.382       .  S
C284        F302   1.385       .  S
C286        F297   1.383       .  S
C286        F298   1.385       .  S
C286        F299   1.384       .  S
C288        C289   1.412       .  A
C288        C293   1.518       .  S
C289        C290   1.404       .  A
C289        H294   1.084       .  S
C290        C291   1.418       .  A
C291        C292   1.405       .  A
C291        C295   1.516       .  S
C292        H296   1.084       .  S
C293        F306   1.384       .  S
C293        F307   1.382       .  S
C293        F308   1.382       .  S
C295        F303   1.382   1_455  S
C295        F304   1.381       .  S
C295        F305   1.385       .  S
C309        C310   1.398       .  A
C309        C314   1.407       .  A
C309        H319   1.084       .  S
C310        C315   1.484       .  S
C310        C311   1.411       .  A
C311        C312   1.408       .  A
C311        C316   1.519       .  S
C312        C313   1.412       .  A
C312        H317   1.082       .  S
C313        C314   1.428       .  A
C314        C318   1.520       .  S
C315        C320   1.417       .  A
C315        C324   1.402       .  A
C316        F332   1.383       .  S
C316        F333   1.382       .  S
C316        F334   1.384       .  S
C318        F329   1.383       .  S
C318        F330   1.385       .  S
C318        F331   1.384       .  S
C320        C321   1.404       .  A
C320        C325   1.520       .  S
C321        C322   1.401       .  A
C321        H326   1.086       .  S
C322        C323   1.419       .  A
C323        C324   1.410       .  A
C323        C327   1.519       .  S
C324        H328   1.085       .  S
C325        F338   1.385       .  S
C325        F339   1.382       .  S
C325        F340   1.382       .  S
C327        F335   1.385       .  S
C327        F804   1.382       .  S
C327        F805   1.384       .  S
F336        C795   1.382       .  S
F337        C795   1.384       .  S
C341        C342   1.398       .  A
C341        C346   1.408       .  A
C341        H351   1.083       .  S
C342        C347   1.485       .  S
C342        C343   1.411       .  A
C343        C344   1.408       .  A
C343        C348   1.519       .  S
C344        C345   1.412       .  A
C344        H349   1.082       .  S
C345        C346   1.430       .  A
C346        C350   1.522       .  S
C347        C352   1.415       .  A
C347        C356   1.400       .  A
C348        F364   1.382       .  S
C348        F365   1.382       .  S
C348        F366   1.384       .  S
C350        F361   1.383       .  S
C350        F362   1.385       .  S
C350        F363   1.384       .  S
C352        C353   1.407       .  A
C352        C357   1.521       .  S
C353        C354   1.408       .  A
C353        H358   1.083       .  S
C354        C355   1.423       .  A
C355        C356   1.409       .  A
C355        C359   1.518       .  S
C356        H360   1.083       .  S
C357        F370   1.385       .  S
C357        F371   1.382       .  S
C357        F372   1.382       .  S
C359        F367   1.382       .  S
C359        F368   1.383       .  S
C359       F1305   1.385       .  S
F369       C1295   1.385       .  S
C373        C374   1.402       .  A
C373        C378   1.407       .  A
C373       H1319   1.085       .  S
C374       C1783   1.483       .  S
C374        C375   1.415       .  A
C375        C376   1.406       .  A
C375        C848   1.519       .  S
C376        C377   1.402       .  A
C376        H381   1.085       .  S
C377        C378   1.417       .  A
C378        C382   1.519       .  S
C379       C1778   1.483   1_445  S
C379        C384   1.417       .  A
C379        C388   1.403       .  A
C380        C843   1.519       .  S
C380        F396   1.382   1_565  S
C380        F397   1.382   1_565  S
C380        F866   1.385       .  S
C382        F393   1.383       .  S
C382        F394   1.385       .  S
C382        F395   1.382       .  S
H383       C1309   1.085   1_455  S
C384        C385   1.406       .  A
C384        C857   1.520   1_455  S
C385        C386   1.401       .  A
C385        H390   1.084       .  S
C386        C387   1.414       .  A
C387        C388   1.407       .  A
C387        C391   1.518       .  S
C388       H1328   1.083   1_545  S
C389        C852   1.520       .  S
C389        F403   1.382   1_455  S
C389        F404   1.382   1_455  S
C389        F870   1.384       .  S
C391        F399   1.384       .  S
C391        F400   1.382       .  S
C391        F401   1.383       .  S
H392       C1324   1.083   1_565  S
F398        C848   1.385       .  S
F402        C857   1.384   1_455  S
C405        C406   1.398       .  A
C405        C410   1.408       .  A
C405        H415   1.082       .  S
C406        C411   1.485       .  S
C406        C407   1.412       .  A
C407        C408   1.408       .  A
C407        C412   1.520       .  S
C408        C409   1.413       .  A
C408        H413   1.081       .  S
C409        C410   1.430       .  A
C410        C414   1.522       .  S
C411        C416   1.415       .  A
C411        C420   1.400       .  A
C412        F428   1.382       .  S
C412        F429   1.382       .  S
C412        F430   1.384       .  S
C414        F425   1.385       .  S
C414        F426   1.384       .  S
C414        F427   1.383       .  S
C416        C417   1.408       .  A
C416        C421   1.520       .  S
C417        C418   1.407       .  A
C417        H422   1.084       .  S
C418        C419   1.422       .  A
C419        C420   1.406       .  A
C419        C423   1.520       .  S
C420        H424   1.084       .  S
C421        F434   1.385       .  S
C421        F435   1.382       .  S
C421        F436   1.382       .  S
C423        F431   1.385       .  S
C423        F432   1.382       .  S
C423        F433   1.384       .  S
C437        C438   1.405       .  A
C437        C442   1.407       .  A
C437        H447   1.085       .  S
C438        C443   1.485       .  S
C438        C439   1.419       .  A
C439        C440   1.405       .  A
C439        C444   1.521       .  S
C440        C441   1.400       .  A
C440        H445   1.086       .  S
C441        C442   1.411       .  A
C442        C446   1.516       .  S
C443        C448   1.414       .  A
C443        C452   1.402       .  A
C444        F460   1.382       .  S
C444        F461   1.383       .  S
C444        F462   1.385       .  S
C446        F457   1.384       .  S
C446        F458   1.383       .  S
C446        F459   1.383       .  S
C448        C449   1.404       .  A
C448        C453   1.520       .  S
C449        C450   1.406       .  A
C449        H454   1.082       .  S
C450        C451   1.422       .  A
C451        C452   1.409       .  A
C451        C923   1.519       .  S
C452        H456   1.083       .  S
C453        F466   1.385       .  S
C453        F467   1.381       .  S
C453        F468   1.383       .  S
C455        C919   1.521   1_545  S
C455        F463   1.384       .  S
C455        F464   1.383       .  S
C455        F933   1.385       .  S
F465        C923   1.385       .  S
O469       Ni477   1.908       .  S
O469        C479   1.278       .  A
O470       Ni477   1.914       .  S
O470        C480   1.278       .  A
O471       Ni477   1.928       .  S
O471        C481   1.284       .  A
O472       Ni477   1.927       .  S
O472        C482   1.284       .  A
O473       Ni478   1.908       .  S
O473        C482   1.277       .  A
O474       Ni478   1.909       .  S
O474        C481   1.278       .  A
O475       Ni478   1.924       .  S
O475        C480   1.284       .  A
O476       Ni478   1.922       .  S
O476        C479   1.281       .  A
Ni477      Ni478   2.382       .  S
C479        C845   1.467       .  S
C480        C877   1.501       .  S
C481        C909   1.483       .  S
C482        C813   1.500       .  S
O483       Ni491   1.923       .  S
O483        C493   1.281       .  A
O484       Ni491   1.921       .  S
O484        C494   1.283       .  A
O485       Ni491   1.912       .  S
O485        C495   1.278       .  A
O486       Ni491   1.912       .  S
O486        C496   1.278       .  A
O487       Ni492   1.920       .  S
O487        C496   1.283       .  A
O488       Ni492   1.921       .  S
O488        C495   1.284       .  A
O489       Ni492   1.914       .  S
O489        C494   1.279       .  A
O490       Ni492   1.914       .  S
O490        C493   1.279       .  A
Ni491      Ni492   2.382       .  S
C493        C854   1.472       .  S
C494        C886   1.493       .  S
C495        C781   1.499       .  S
C496        C749   1.489       .  S
O497       Ni505   1.914       .  S
O497        C507   1.279       .  A
O498       Ni505   1.914       .  S
O498        C508   1.279       .  A
O499       Ni505   1.922       .  S
O499       C1445   1.282       .  A
O500       Ni505   1.920       .  S
O500        C510   1.281       .  A
O501       Ni506   1.915       .  S
O501       C1446   1.281   1_455  A
O502       Ni506   1.915       .  S
O502        C509   1.280       .  A
O503       Ni506   1.913       .  S
O503       C1444   1.282       .  A
O504       Ni506   1.914       .  S
O504       C1443   1.283   1_455  A
Ni505     Ni1442   2.381       .  S
Ni506     Ni1441   2.381   1_455  S
C507       O1440   1.283       .  A
C507        C717   1.495       .  S
C508       O1439   1.282       .  A
C508        C685   1.490       .  S
C509       O1435   1.282   1_455  A
C509        C653   1.482       .  S
C510       O1437   1.281       .  A
C510        C822   1.484       .  S
O511       Ni519   1.925       .  S
O511        C521   1.282       .  A
O512       Ni519   1.925       .  S
O512        C522   1.285       .  A
O513       Ni519   1.913       .  S
O513       C1459   1.280   1_455  A
O514       Ni519   1.912       .  S
O514        C524   1.278       .  A
O515       Ni520   1.923       .  S
O515       C1460   1.282       .  A
O516       Ni520   1.921       .  S
O516        C523   1.281       .  A
O517       Ni520   1.904       .  S
O517       C1458   1.276       .  A
O518       Ni520   1.903       .  S
O518       C1457   1.280       .  A
Ni519     Ni1456   2.384   1_455  S
Ni520     Ni1455   2.384       .  S
C521       O1454   1.280   1_455  A
C521        C726   1.495       .  S
C522       O1453   1.276   1_455  A
C522        C694   1.490       .  S
C523       O1449   1.280       .  A
C523        C621   1.476       .  S
C524       O1451   1.282       .  A
C524        C758   1.472       .  S
O525       Ni533   1.923       .  S
O525        C535   1.282       .  A
O526       Ni533   1.926       .  S
O526        C536   1.283   1_554  A
O527       Ni533   1.916       .  S
O528       Ni533   1.921   1_556  S
O528        C538   1.283       .  A
O529       Ni534   1.927   1_545  S
O530       Ni534   1.926   1_554  S
O530        C537   1.285       .  A
O531       Ni534   1.915       .  S
O532       Ni534   1.915       .  S
C535        C566   1.470       .  S
C536        C598   1.482       .  S
C537        C918   1.502       .  S
C538        C630   1.501       .  S
O539       Ni547   1.919       .  S
O540       Ni547   1.921       .  S
O541       Ni547   1.921       .  S
O542       Ni547   1.927   1_556  S
O542        C552   1.284       .  A
O543       Ni548   1.918       .  S
O544       Ni548   1.918   1_554  S
O544        C551   1.280       .  A
O545       Ni548   1.915       .  S
O545        C550   1.282       .  A
O546       Ni548   1.916       .  S
O546        C549   1.280       .  A
C549        C557   1.475       .  S
C550        C589   1.500       .  S
C551        C790   1.482       .  S
C552        C662   1.501       .  S
C553        C558   1.406       .  A
C553       H1499   1.083       .  S
C554       C1495   1.482   1_455  S
C554        C555   1.415   1_556  A
C555        C556   1.406       .  A
C555        C560   1.519       .  S
C556        C557   1.403   1_554  A
C556        H561   1.083       .  S
C558        C562   1.519       .  S
C559       C1490   1.482       .  S
C559        C568   1.402   1_556  A
C560        F576   1.382       .  S
C560        F577   1.382       .  S
C560        F578   1.384       .  S
C562        F573   1.382   1_565  S
C562        F574   1.385       .  S
C562        F575   1.383       .  S
H563       C1489   1.083       .  S
C564        C565   1.406       .  A
C564        C569   1.520   1_554  S
C565        H570   1.083   1_554  S
C566        C567   1.413       .  A
C567        C568   1.405       .  A
C567        C571   1.514       .  S
C568        H572   1.084       .  S
C569        F582   1.384       .  S
C569        F583   1.382       .  S
C569        F584   1.382   1_556  S
C571        F579   1.385       .  S
C571        F580   1.380       .  S
C571        F581   1.383       .  S
C585        C590   1.410       .  A
C585        H595   1.084       .  S
C586        C591   1.488       .  S
C586        C587   1.412       .  A
C587        C588   1.406       .  A
C587        C592   1.520       .  S
C588        C589   1.411       .  A
C588        H593   1.083       .  S
C590        C594   1.521       .  S
C591        C600   1.402       .  A
C592        F608   1.382       .  S
C592        F609   1.382   1_556  S
C592        F610   1.384       .  S
C594        F605   1.383       .  S
C594        F606   1.385       .  S
C594        F607   1.384   1_554  S
C596        C597   1.409       .  A
C596        C601   1.519       .  S
C597        H602   1.083       .  S
C598        C599   1.419       .  A
C599        C600   1.409       .  A
C599        C603   1.518       .  S
C600        H604   1.083       .  S
C601        F614   1.385       .  S
C601        F615   1.382   1_545  S
C601        F616   1.382       .  S
C603        F611   1.382       .  S
C603        F612   1.383       .  S
C603        F613   1.385       .  S
C617        C618   1.405       .  A
C617        C622   1.410       .  A
C617        H627   1.084       .  S
C618        C623   1.485       .  S
C618        C619   1.417       .  A
C619        C620   1.403       .  A
C619        C624   1.522       .  S
C620        C621   1.402       .  A
C620        H625   1.085       .  S
C621        C622   1.415       .  A
C622        C626   1.517       .  S
C623        C628   1.411       .  A
C623        C632   1.398       .  A
C624        F640   1.382       .  S
C624        F641   1.382       .  S
C624        F642   1.385       .  S
C626        F637   1.384       .  S
C626        F638   1.385       .  S
C626        F639   1.382       .  S
C628        C629   1.409       .  A
C628        C633   1.520       .  S
C629        C630   1.413       .  A
C629        H634   1.083       .  S
C630        C631   1.429       .  A
C631        C632   1.408       .  A
C631        C635   1.521       .  S
C632        H636   1.084       .  S
C633        F646   1.384       .  S
C633        F647   1.382       .  S
C633        F648   1.382       .  S
C635        F643   1.385       .  S
C635        F644   1.382       .  S
C635        F645   1.383       .  S
C649        C650   1.402       .  A
C649        C654   1.409       .  A
C649        H659   1.082       .  S
C650        C655   1.484       .  S
C650        C651   1.417       .  A
C651        C652   1.407       .  A
C651        C656   1.521       .  S
C652        C653   1.404       .  A
C652        H657   1.082       .  S
C653        C654   1.419       .  A
C654        C658   1.519       .  S
C655        C660   1.411       .  A
C655        C664   1.397       .  A
C656        F672   1.382       .  S
C656        F673   1.382       .  S
C656       F1610   1.384       .  S
C658        F669   1.385       .  S
C658        F670   1.382       .  S
C658        F671   1.384       .  S
C660        C661   1.410       .  A
C660        C665   1.518       .  S
C661        C662   1.413       .  A
C661        H666   1.082       .  S
C662        C663   1.430       .  A
C663        C664   1.406       .  A
C664        H668   1.083       .  S
C665        F678   1.384       .  S
C665        F679   1.383       .  S
C665        F680   1.382       .  S
C667        F675   1.385       .  S
C667        F676   1.383       .  S
C667        F677   1.384       .  S
F674       C1592   1.384       .  S
C681       C1618   1.399   1_655  A
C681        C686   1.406       .  A
C681        H691   1.083       .  S
C682       C1623   1.480       .  S
C682       C1617   1.399       .  A
C682        C683   1.412       .  A
C683        C684   1.404       .  A
C683        C688   1.520       .  S
C684        C685   1.409       .  A
C684        H689   1.082       .  S
C685       C1622   1.425       .  A
C686       C1621   1.426   1_655  A
C686        C690   1.521       .  S
C687       C1618   1.480       .  S
C687        C692   1.413       .  A
C687       C1632   1.398   1_455  A
C688        F704   1.382       .  S
C688        F705   1.382       .  S
C688        F706   1.385       .  S
C690        F701   1.385       .  S
C690        F702   1.383       .  S
C690        F703   1.383       .  S
C692        C693   1.406       .  A
C692        C697   1.519       .  S
C693        C694   1.407       .  A
C693        H698   1.083       .  S
C694       C1631   1.427   1_455  A
C695       C1630   1.427       .  A
C695        C696   1.405       .  A
C695        C699   1.522       .  S
C696       C1623   1.397       .  A
C696        H700   1.084       .  S
C697        F710   1.384       .  S
C697        F711   1.382       .  S
C697        F712   1.382       .  S
C699        F707   1.385       .  S
C699        F708   1.383       .  S
C699        F709   1.384       .  S
C713       C1650   1.398       .  A
C713        C718   1.407       .  A
C713        H723   1.084       .  S
C714       C1187   1.479   1_565  S
C714       C1649   1.398       .  A
C714        C715   1.412   1_655  A
C715        C716   1.403       .  A
C716       C1653   1.411   1_455  A
C716        H721   1.083       .  S
C717       C1652   1.411       .  A
C717        C718   1.429       .  A
C718        C722   1.522       .  S
C719       C1182   1.482       .  S
C719        C724   1.411       .  A
C719       C1664   1.400       .  A
C720        F736   1.382       .  S
C720        F737   1.383       .  S
C722        F733   1.384       .  S
C722        F734   1.385       .  S
C722        F735   1.383       .  S
C724        C725   1.402       .  A
C725       C1662   1.412       .  A
C725        H730   1.082       .  S
C726       C1661   1.412   1_455  A
C726        C727   1.426       .  A
C727        C728   1.409       .  A
C727        C731   1.520       .  S
C728       C1655   1.400   1_455  A
C728        H732   1.083       .  S
C729        F743   1.382   1_545  S
C729        F744   1.382   1_545  S
C731        F739   1.385       .  S
C731        F740   1.383       .  S
C731        F741   1.383       .  S
C745        C746   1.399       .  A
C745        C750   1.406       .  A
C745        H755   1.082       .  S
C746        C751   1.481       .  S
C746        C747   1.415       .  A
C747        C748   1.406       .  A
C747        C752   1.521       .  S
C748        C749   1.408       .  A
C748        H753   1.082       .  S
C749        C750   1.425       .  A
C750        C754   1.521       .  S
C751        C756   1.416       .  A
C751        C760   1.401       .  A
C752        F768   1.382       .  S
C752        F769   1.381       .  S
C752        F770   1.385       .  S
C754        F765   1.383       .  S
C754        F766   1.385       .  S
C754        F767   1.384       .  S
C756        C757   1.409       .  A
C756        C761   1.519       .  S
C757        C758   1.403       .  A
C757        H762   1.083       .  S
C758        C759   1.415       .  A
C759        C760   1.402       .  A
C759        C763   1.518       .  S
C760        H764   1.083       .  S
C761        F774   1.385       .  S
C761        F775   1.382       .  S
C761        F776   1.381       .  S
C763        F771   1.382       .  S
C763        F772   1.382       .  S
C763        F773   1.385       .  S
C777        C778   1.398       .  A
C777        C782   1.407       .  A
C777        H787   1.084       .  S
C778        C783   1.484       .  S
C778        C779   1.410       .  A
C779        C780   1.407       .  A
C779        C784   1.519       .  S
C780        C781   1.412       .  A
C780        H785   1.082       .  S
C781        C782   1.430       .  A
C782        C786   1.522       .  S
C783        C788   1.417       .  A
C783        C792   1.401       .  A
C784        F800   1.383       .  S
C784        F801   1.382       .  S
C784        F802   1.384       .  S
C786        F797   1.383       .  S
C786        F798   1.385       .  S
C786        F799   1.384       .  S
C788        C789   1.405       .  A
C788        C793   1.522       .  S
C789        C790   1.404       .  A
C789        H794   1.086       .  S
C790        C791   1.419       .  A
C791        C792   1.409       .  A
C791        C795   1.518       .  S
C792        H796   1.086       .  S
C793        F806   1.384       .  S
C793        F807   1.382       .  S
C793        F808   1.382       .  S
C795        F803   1.385       .  S
C809        C810   1.396       .  A
C809        C814   1.405       .  A
C809        H819   1.084       .  S
C810        C815   1.483       .  S
C810        C811   1.411       .  A
C811        C812   1.409       .  A
C811        C816   1.519       .  S
C812        C813   1.412       .  A
C812        H817   1.082       .  S
C813        C814   1.430       .  A
C814        C818   1.522       .  S
C815        C820   1.416       .  A
C815        C824   1.401       .  A
C816        F832   1.382       .  S
C816        F833   1.381       .  S
C816        F834   1.384       .  S
C818        F829   1.383       .  S
C818        F830   1.385       .  S
C818        F831   1.384       .  S
C820        C821   1.406       .  A
C820        C825   1.522       .  S
C821        C822   1.405       .  A
C821        H826   1.083       .  S
C822        C823   1.420       .  A
C823        C824   1.408       .  A
C823        C827   1.519       .  S
C824        H828   1.083       .  S
C825        F838   1.385       .  S
C825        F839   1.382       .  S
C825        F840   1.381       .  S
C827        F835   1.382       .  S
C827        F836   1.384       .  S
C827       F1773   1.385       .  S
F837       C1763   1.385       .  S
C841        C842   1.403       .  A
C841        C846   1.406       .  A
C841       H1787   1.083       .  S
C842       C1315   1.483   1_565  S
C842        C843   1.417       .  A
C843        C844   1.406       .  A
C844        C845   1.400       .  A
C844        H849   1.083       .  S
C845        C846   1.413       .  A
C846        C850   1.518       .  S
C847       C1310   1.483   1_455  S
C847        C852   1.417       .  A
C847        C856   1.403       .  A
C848        F864   1.382       .  S
C848        F865   1.382       .  S
C850        F861   1.383       .  S
C850        F862   1.384       .  S
C850        F863   1.383       .  S
H851       C1777   1.083       .  S
C852        C853   1.407       .  A
C853        C854   1.401       .  A
C853        H858   1.084       .  S
C854        C855   1.414       .  A
C855        C856   1.407       .  A
C855        C859   1.517       .  S
C856       H1796   1.083       .  S
C857        F871   1.382       .  S
C857        F872   1.382       .  S
C859        F867   1.384       .  S
C859        F868   1.383       .  S
C859        F869   1.382       .  S
H860       C1792   1.083       .  S
C873        C874   1.398       .  A
C873        C878   1.408       .  A
C873        H883   1.082       .  S
C874        C879   1.486       .  S
C874        C875   1.412       .  A
C875        C876   1.408       .  A
C875        C880   1.520       .  S
C876        C877   1.412       .  A
C876        H881   1.081       .  S
C877        C878   1.430       .  A
C878        C882   1.522       .  S
C879        C884   1.414       .  A
C879        C888   1.399       .  A
C880        F896   1.382       .  S
C880        F897   1.382       .  S
C880        F898   1.384       .  S
C882        F893   1.385       .  S
C882        F894   1.383       .  S
C882        F895   1.383       .  S
C884        C885   1.406       .  A
C884        C889   1.520       .  S
C885        C886   1.408       .  A
C885        H890   1.083       .  S
C886        C887   1.426       .  A
C887        C888   1.408       .  A
C887        C891   1.521       .  S
C888        H892   1.084       .  S
C889        F902   1.384       .  S
C889        F903   1.382       .  S
C889        F904   1.382       .  S
C891        F899   1.385       .  S
C891        F900   1.383       .  S
C891        F901   1.384       .  S
C905        C906   1.402       .  A
C905        C910   1.409       .  A
C905        H915   1.084       .  S
C906        C911   1.488       .  S
C906        C907   1.417       .  A
C907        C908   1.406       .  A
C907        C912   1.520       .  S
C908        C909   1.403       .  A
C908        H913   1.085       .  S
C909        C910   1.420       .  A
C910        C914   1.518       .  S
C911        C916   1.411       .  A
C911        C920   1.399       .  A
C912        F928   1.382       .  S
C912        F929   1.382       .  S
C912        F930   1.385       .  S
C914        F925   1.385       .  S
C914        F926   1.382       .  S
C914        F927   1.384       .  S
C916        C917   1.407       .  A
C916        C921   1.519       .  S
C917        C918   1.411       .  A
C917        H922   1.082       .  S
C918        C919   1.430       .  A
C919        C920   1.410       .  A
C920        H924   1.084       .  S
C921        F934   1.384       .  S
C921        F935   1.383       .  S
C921        F936   1.383       .  S
C923        F931   1.383       .  S
C923        F932   1.382       .  S
O937       Ni945   1.913       .  S
O937        C947   1.279       .  A
O938       Ni945   1.916       .  S
O938        C948   1.279       .  A
O939       Ni945   1.921       .  S
O939        C949   1.281       .  A
O940       Ni945   1.921       .  S
O940        C950   1.283       .  A
O941       Ni946   1.915       .  S
O941        C950   1.279       .  A
O942       Ni946   1.911       .  S
O942        C949   1.279       .  A
O943       Ni946   1.922       .  S
O943        C948   1.283       .  A
O944       Ni946   1.920       .  S
O944        C947   1.282       .  A
Ni945      Ni946   2.382       .  S
C947       C1313   1.474       .  S
C948       C1345   1.502       .  S
C949       C1377   1.469       .  S
C950       C1281   1.500       .  S
O951       Ni959   1.917       .  S
O951        C961   1.280       .  A
O952       Ni959   1.917       .  S
O952        C962   1.281       .  A
O953       Ni959   1.916       .  S
O953        C963   1.279       .  A
O954       Ni959   1.916       .  S
O954        C964   1.279       .  A
O955       Ni960   1.924       .  S
O955        C964   1.284       .  A
O956       Ni960   1.923       .  S
O956        C963   1.283       .  A
O957       Ni960   1.917       .  S
O957        C962   1.280       .  A
O958       Ni960   1.918       .  S
O958        C961   1.280       .  A
Ni959      Ni960   2.381       .  S
C961       C1322   1.471       .  S
C962       C1354   1.486       .  S
C963       C1249   1.500       .  S
C964       C1217   1.499       .  S
O965       Ni973   1.915       .  S
O965        C975   1.279       .  A
O966       Ni973   1.918       .  S
O966        C976   1.280       .  A
O967       Ni973   1.921       .  S
O968       Ni973   1.921       .  S
O968        C978   1.281       .  A
O969       Ni974   1.919       .  S
O970       Ni974   1.918       .  S
O970        C977   1.280       .  A
O971       Ni974   1.917       .  S
O972       Ni974   1.916       .  S
C975       C1185   1.497       .  S
C976       C1153   1.500       .  S
C977       C1121   1.482       .  S
C978       C1290   1.492       .  S
O979       Ni987   1.919       .  S
O979        C989   1.281       .  A
O980       Ni987   1.920       .  S
O980        C990   1.282       .  A
O981       Ni987   1.923       .  S
O982       Ni987   1.924       .  S
O982        C992   1.281       .  A
O983       Ni988   1.925       .  S
O984       Ni988   1.924       .  S
O984        C991   1.282       .  A
O985       Ni988   1.914       .  S
O986       Ni988   1.912       .  S
C989       C1194   1.484       .  S
C990       C1162   1.484       .  S
C991       C1089   1.493       .  S
C992       C1226   1.482       .  S
O993      Ni1001   1.921       .  S
O993       C1003   1.283   1_545  A
O994      Ni1001   1.925       .  S
O994       C1004   1.282       .  A
O995      Ni1001   1.914       .  S
O995       C1473   1.278   1_545  A
O996      Ni1001   1.918   1_556  S
O996       C1006   1.283       .  A
O997      Ni1002   1.918       .  S
O997       C1474   1.280       .  A
O998      Ni1002   1.920   1_554  S
O998       C1005   1.283       .  A
O999      Ni1002   1.916       .  S
O999       C1472   1.279       .  A
O1000     Ni1002   1.912       .  S
O1000      C1471   1.279   1_556  A
Ni1001    Ni1470   2.380   1_544  S
Ni1002    Ni1469   2.384   1_556  S
C1003      O1468   1.279   1_554  A
C1003      C1034   1.487       .  S
C1004      O1467   1.279   1_544  A
C1004      C1066   1.480       .  S
C1005      O1463   1.279       .  A
C1005      C1386   1.488       .  S
C1006      O1465   1.282       .  A
C1006      C1098   1.501       .  S
O1007     Ni1015   1.919       .  S
O1007      C1485   1.281   1_554  A
O1008     Ni1015   1.924       .  S
O1008      C1486   1.281   1_554  A
O1009     Ni1015   1.920       .  S
O1009      C1487   1.282       .  A
O1010     Ni1015   1.919   1_556  S
O1010      C1020   1.283       .  A
O1011     Ni1016   1.911   1_565  S
O1011      C1488   1.278       .  A
O1012     Ni1016   1.913   1_554  S
O1012      C1019   1.279       .  A
O1013     Ni1016   1.918       .  S
O1013      C1018   1.283   1_546  A
O1014     Ni1016   1.919       .  S
O1014      C1017   1.281   1_546  A
Ni1015    Ni1484   2.381   1_554  S
Ni1016    Ni1483   2.381   1_546  S
C1017      O1475   1.281       .  A
C1017      C1025   1.479       .  S
C1018      O1476   1.280       .  A
C1018      C1057   1.498       .  S
C1019      O1477   1.282   1_545  A
C1019      C1258   1.478       .  S
C1020      O1479   1.280       .  A
C1020      C1130   1.502       .  S
C1021      C1490   1.402       .  A
C1021      C1026   1.407       .  A
C1022      C1489   1.402   1_554  A
C1022      C1023   1.417       .  A
C1023      C1024   1.409       .  A
C1023      C1028   1.519       .  S
C1024      C1025   1.404       .  A
C1024      H1029   1.083       .  S
C1025      C1494   1.417   1_554  A
C1026      C1493   1.417       .  A
C1026      C1030   1.519       .  S
C1027      C1500   1.416   1_565  A
C1027      C1036   1.401       .  A
C1028      F1044   1.382       .  S
C1028      F1045   1.383   1_565  S
C1028      F1046   1.385       .  S
C1030      F1041   1.383       .  S
C1030      F1042   1.385       .  S
C1030      F1043   1.382       .  S
C1032      C1495   1.417       .  A
C1032      C1033   1.406       .  A
C1032      C1037   1.519       .  S
C1033      C1502   1.401   1_556  A
C1033      H1038   1.084       .  S
C1034      C1501   1.405   1_565  A
C1034      C1035   1.423       .  A
C1035      C1036   1.409       .  A
C1035      C1039   1.520       .  S
C1036      H1040   1.083       .  S
C1037      F1050   1.385       .  S
C1037      F1051   1.382       .  S
C1037      F1052   1.382   1_655  S
C1039      F1047   1.385       .  S
C1039      F1048   1.382   1_554  S
C1039      F1049   1.384       .  S
C1053      C1522   1.401   1_554  A
C1053      C1058   1.411       .  A
C1053      H1063   1.084       .  S
C1054      C1059   1.487       .  S
C1054      C1521   1.400   1_545  A
C1054      C1055   1.413   1_554  A
C1055      C1056   1.407       .  A
C1055      C1060   1.520       .  S
C1056      C1057   1.411   1_546  A
C1056      H1061   1.083       .  S
C1057      C1526   1.427       .  A
C1058      C1525   1.428   1_554  A
C1058      C1062   1.520       .  S
C1059      C1532   1.417       .  A
C1059      C1068   1.402   1_554  A
C1060      F1076   1.382       .  S
C1060      F1077   1.382   1_556  S
C1060      F1078   1.385       .  S
C1062      F1073   1.383       .  S
C1062      F1074   1.385       .  S
C1062      F1075   1.383   1_554  S
C1064      C1527   1.416   1_554  A
C1064      C1065   1.408       .  A
C1064      C1069   1.519       .  S
C1065      C1534   1.404   1_554  A
C1065      H1070   1.082       .  S
C1066      C1533   1.404       .  A
C1066      C1067   1.418   1_554  A
C1067      C1068   1.407       .  A
C1067      C1071   1.519       .  S
C1068      H1072   1.083       .  S
C1069      F1082   1.384       .  S
C1069      F1083   1.382       .  S
C1069      F1084   1.382       .  S
C1071      F1079   1.382   1_545  S
C1071      F1080   1.384       .  S
C1071      F1081   1.385       .  S
C1085      C1086   1.403       .  A
C1085      C1090   1.412       .  A
C1085      H1095   1.083       .  S
C1086      C1091   1.491       .  S
C1086      C1087   1.417       .  A
C1087      C1088   1.407       .  A
C1087      C1092   1.521       .  S
C1088      C1089   1.406       .  A
C1088      H1093   1.081       .  S
C1089      C1090   1.421       .  A
C1090      C1094   1.518       .  S
C1091      C1096   1.413       .  A
C1091      C1100   1.401       .  A
C1092      F1108   1.382       .  S
C1092      F1109   1.382       .  S
C1092      F1110   1.385   1_655  S
C1094      F1105   1.384       .  S
C1094      F1106   1.385       .  S
C1094      F1107   1.382       .  S
C1096      C1097   1.409       .  A
C1096      C1101   1.519       .  S
C1097      C1098   1.411       .  A
C1097      H1102   1.083       .  S
C1098      C1099   1.427       .  A
C1099      C1100   1.411       .  A
C1099      C1103   1.520       .  S
C1100      H1104   1.084       .  S
C1101      F1114   1.385       .  S
C1101      F1115   1.382       .  S
C1101      F1116   1.382       .  S
C1103      F1111   1.385   1_545  S
C1103      F1112   1.383   1_545  S
C1103      F1113   1.383   1_545  S
C1117      C1118   1.403       .  A
C1117      C1122   1.410       .  A
C1117      H1127   1.083       .  S
C1118      C1123   1.487       .  S
C1118      C1119   1.417       .  A
C1119      C1120   1.407       .  A
C1119      C1124   1.521       .  S
C1120      C1121   1.404       .  A
C1120      H1125   1.083       .  S
C1121      C1122   1.418       .  A
C1122      C1126   1.518       .  S
C1123      C1128   1.412       .  A
C1123      C1132   1.399       .  A
C1124      F1140   1.382       .  S
C1124      F1141   1.382       .  S
C1126      F1137   1.385       .  S
C1126      F1138   1.382       .  S
C1126      F1139   1.384       .  S
C1128      C1129   1.408       .  A
C1128      C1133   1.519       .  S
C1129      C1130   1.412       .  A
C1129      H1134   1.083       .  S
C1130      C1131   1.430       .  A
C1131      C1132   1.409       .  A
C1131      C1603   1.522       .  S
C1132      H1136   1.084       .  S
C1133      F1146   1.384       .  S
C1133      F1147   1.382       .  S
C1133      F1148   1.382       .  S
C1135      C1599   1.522       .  S
C1135      F1143   1.385   1_565  S
C1135      F1144   1.384   1_565  S
C1135      F1145   1.383   1_565  S
C1149      C1154   1.407       .  A
C1149      H1159   1.083       .  S
C1150      C1151   1.411       .  A
C1151      C1152   1.407       .  A
C1151      C1156   1.520       .  S
C1152      C1153   1.413   1_455  A
C1152      H1157   1.082       .  S
C1154      C1158   1.522       .  S
C1155      C1160   1.415       .  A
C1156      F1172   1.382       .  S
C1156      F1173   1.381       .  S
C1156      F1174   1.385       .  S
C1158      F1169   1.385       .  S
C1158      F1170   1.382       .  S
C1158      F1171   1.383       .  S
C1160      C1161   1.407       .  A
C1160      C1165   1.520       .  S
C1161      C1162   1.406       .  A
C1161      H1166   1.083       .  S
C1163      C1164   1.407       .  A
C1163      C1167   1.520       .  S
C1164      H1168   1.083       .  S
C1165      F1178   1.385       .  S
C1165      F1179   1.382       .  S
C1165      F1180   1.381       .  S
C1167      F1175   1.385       .  S
C1167      F1176   1.383       .  S
C1167      F1177   1.383   1_655  S
C1181      C1186   1.409       .  A
C1181      H1191   1.084       .  S
C1182      C1183   1.412       .  A
C1183      C1184   1.403       .  A
C1183      C1656   1.521       .  S
C1184      H1189   1.083       .  S
C1185      C1186   1.429       .  A
C1186      C1190   1.521       .  S
C1187      C1192   1.413       .  A
C1188      C1651   1.521   1_545  S
C1188      F1204   1.382       .  S
C1188      F1205   1.382       .  S
C1188      F1674   1.384       .  S
C1190      F1201   1.384       .  S
C1190      F1202   1.385       .  S
C1190      F1203   1.383       .  S
C1192      C1193   1.404       .  A
C1192      C1665   1.520       .  S
C1193      H1198   1.082       .  S
C1194      C1195   1.421       .  A
C1195      C1196   1.405       .  A
C1195      C1199   1.518       .  S
C1196      H1200   1.084       .  S
C1197      C1660   1.521       .  S
C1197      F1678   1.385       .  S
C1197      F1211   1.382       .  S
C1197      F1212   1.382       .  S
C1199      F1207   1.385       .  S
C1199      F1208   1.381       .  S
C1199      F1209   1.383       .  S
F1206      C1656   1.384       .  S
F1210      C1665   1.385       .  S
C1213      C1214   1.399       .  A
C1213      C1218   1.410       .  A
C1213      H1223   1.082       .  S
C1214      C1219   1.488       .  S
C1214      C1215   1.414       .  A
C1215      C1216   1.408       .  A
C1215      C1220   1.520       .  S
C1216      C1217   1.410       .  A
C1216      H1221   1.082       .  S
C1217      C1218   1.428       .  A
C1218      C1222   1.521       .  S
C1219      C1224   1.417       .  A
C1219      C1228   1.400       .  A
C1220      F1236   1.382       .  S
C1220      F1237   1.382       .  S
C1220      F1238   1.385       .  S
C1222      F1233   1.383       .  S
C1222      F1234   1.385       .  S
C1222      F1235   1.384       .  S
C1224      C1225   1.412       .  A
C1224      C1229   1.518       .  S
C1225      C1226   1.404       .  A
C1225      H1230   1.084       .  S
C1226      C1227   1.418       .  A
C1227      C1228   1.405       .  A
C1227      C1231   1.516       .  S
C1228      H1232   1.084       .  S
C1229      F1242   1.384       .  S
C1229      F1243   1.382       .  S
C1229      F1244   1.382       .  S
C1231      F1239   1.382       .  S
C1231      F1240   1.381       .  S
C1231      F1241   1.385       .  S
C1245      C1246   1.398       .  A
C1245      C1250   1.407       .  A
C1245      H1255   1.084       .  S
C1246      C1251   1.484       .  S
C1246      C1247   1.411       .  A
C1247      C1248   1.408       .  A
C1247      C1252   1.519       .  S
C1248      C1249   1.412       .  A
C1248      H1253   1.082       .  S
C1249      C1250   1.428       .  A
C1250      C1254   1.520       .  S
C1251      C1256   1.417       .  A
C1251      C1260   1.402       .  A
C1252      F1268   1.383       .  S
C1252      F1269   1.382       .  S
C1252      F1270   1.384       .  S
C1254      F1265   1.383       .  S
C1254      F1266   1.385       .  S
C1254      F1267   1.384       .  S
C1256      C1257   1.404       .  A
C1256      C1261   1.520       .  S
C1257      C1258   1.401       .  A
C1257      H1262   1.086       .  S
C1258      C1259   1.419       .  A
C1259      C1260   1.410       .  A
C1259      C1263   1.519       .  S
C1260      H1264   1.085       .  S
C1261      F1274   1.385       .  S
C1261      F1275   1.382       .  S
C1261      F1276   1.382       .  S
C1263      F1271   1.385       .  S
C1263      F1740   1.382       .  S
C1263      F1741   1.384       .  S
F1272      C1731   1.382       .  S
F1273      C1731   1.384       .  S
C1277      C1278   1.398       .  A
C1277      C1282   1.408       .  A
C1277      H1287   1.083       .  S
C1278      C1283   1.485       .  S
C1278      C1279   1.411       .  A
C1279      C1280   1.408       .  A
C1279      C1284   1.519       .  S
C1280      C1281   1.412       .  A
C1280      H1285   1.081       .  S
C1281      C1282   1.430       .  A
C1282      C1286   1.522       .  S
C1283      C1288   1.415       .  A
C1283      C1292   1.400       .  A
C1284      F1300   1.382       .  S
C1284      F1301   1.382       .  S
C1284      F1302   1.384       .  S
C1286      F1297   1.383       .  S
C1286      F1298   1.385       .  S
C1286      F1299   1.384       .  S
C1288      C1289   1.407       .  A
C1288      C1293   1.521       .  S
C1289      C1290   1.408       .  A
C1289      H1294   1.083       .  S
C1290      C1291   1.423       .  A
C1291      C1292   1.409       .  A
C1291      C1295   1.518       .  S
C1292      H1296   1.083       .  S
C1293      F1306   1.385       .  S
C1293      F1307   1.382       .  S
C1293      F1308   1.382       .  S
C1295      F1303   1.382       .  S
C1295      F1304   1.383       .  S
C1309      C1310   1.402       .  A
C1309      C1314   1.407       .  A
C1310      C1311   1.415       .  A
C1311      C1312   1.406       .  A
C1311      C1784   1.519       .  S
C1312      C1313   1.402       .  A
C1312      H1317   1.085       .  S
C1313      C1314   1.417       .  A
C1314      C1318   1.519       .  S
C1315      C1320   1.417       .  A
C1315      C1324   1.403       .  A
C1316      C1779   1.519       .  S
C1316      F1332   1.382   1_565  S
C1316      F1333   1.382   1_565  S
C1316      F1802   1.385       .  S
C1318      F1329   1.383       .  S
C1318      F1330   1.385       .  S
C1318      F1331   1.382       .  S
C1320      C1321   1.406       .  A
C1320      C1793   1.520       .  S
C1321      C1322   1.401       .  A
C1321      H1326   1.084       .  S
C1322      C1323   1.414       .  A
C1323      C1324   1.407       .  A
C1323      C1327   1.518       .  S
C1325      C1788   1.520       .  S
C1325      F1806   1.384       .  S
C1325      F1339   1.382       .  S
C1325      F1340   1.382       .  S
C1327      F1335   1.384       .  S
C1327      F1336   1.382       .  S
C1327      F1337   1.383       .  S
F1334      C1784   1.385       .  S
F1338      C1793   1.384       .  S
C1341      C1342   1.398       .  A
C1341      C1346   1.408       .  A
C1341      H1351   1.082       .  S
C1342      C1347   1.485       .  S
C1342      C1343   1.412       .  A
C1343      C1344   1.408       .  A
C1343      C1348   1.520       .  S
C1344      C1345   1.413       .  A
C1344      H1349   1.081       .  S
C1345      C1346   1.430       .  A
C1346      C1350   1.522       .  S
C1347      C1352   1.415       .  A
C1347      C1356   1.400       .  A
C1348      F1364   1.382       .  S
C1348      F1365   1.382       .  S
C1348      F1366   1.384       .  S
C1350      F1361   1.385       .  S
C1350      F1362   1.384       .  S
C1350      F1363   1.383       .  S
C1352      C1353   1.408       .  A
C1352      C1357   1.520       .  S
C1353      C1354   1.407       .  A
C1353      H1358   1.084       .  S
C1354      C1355   1.422       .  A
C1355      C1356   1.406       .  A
C1355      C1359   1.520       .  S
C1356      H1360   1.084       .  S
C1357      F1370   1.385       .  S
C1357      F1371   1.382       .  S
C1357      F1372   1.382       .  S
C1359      F1367   1.385       .  S
C1359      F1368   1.382       .  S
C1359      F1369   1.384       .  S
C1373      C1374   1.405       .  A
C1373      C1378   1.407       .  A
C1373      H1383   1.085       .  S
C1374      C1379   1.485       .  S
C1374      C1375   1.419       .  A
C1375      C1376   1.405       .  A
C1375      C1380   1.521       .  S
C1376      C1377   1.400       .  A
C1376      H1381   1.086       .  S
C1377      C1378   1.411       .  A
C1378      C1382   1.516       .  S
C1379      C1384   1.414       .  A
C1379      C1388   1.402       .  A
C1380      F1396   1.382       .  S
C1380      F1397   1.383       .  S
C1380      F1398   1.385       .  S
C1382      F1393   1.384       .  S
C1382      F1394   1.383       .  S
C1382      F1395   1.383       .  S
C1384      C1385   1.404       .  A
C1384      C1389   1.520       .  S
C1385      C1386   1.406       .  A
C1385      H1390   1.082       .  S
C1386      C1387   1.422       .  A
C1387      C1388   1.409       .  A
C1387      C1859   1.519       .  S
C1388      H1392   1.083       .  S
C1389      F1402   1.385       .  S
C1389      F1403   1.381       .  S
C1389      F1404   1.383       .  S
C1391      C1855   1.521   1_545  S
C1391      F1399   1.384       .  S
C1391      F1400   1.383       .  S
C1391      F1869   1.385       .  S
F1401      C1859   1.385       .  S
O1405     Ni1413   1.908       .  S
O1405      C1415   1.278       .  A
O1406     Ni1413   1.914       .  S
O1406      C1416   1.278       .  A
O1407     Ni1413   1.928       .  S
O1407      C1417   1.284       .  A
O1408     Ni1413   1.927       .  S
O1408      C1418   1.284       .  A
O1409     Ni1414   1.908       .  S
O1409      C1418   1.277       .  A
O1410     Ni1414   1.910       .  S
O1410      C1417   1.278       .  A
O1411     Ni1414   1.924       .  S
O1411      C1416   1.284       .  A
O1412     Ni1414   1.922       .  S
O1412      C1415   1.281       .  A
Ni1413    Ni1414   2.382       .  S
C1415      C1781   1.467       .  S
C1416      C1813   1.501       .  S
C1417      C1845   1.483       .  S
C1418      C1749   1.500       .  S
O1419     Ni1427   1.923       .  S
O1419      C1429   1.281       .  A
O1420     Ni1427   1.921       .  S
O1420      C1430   1.283       .  A
O1421     Ni1427   1.912       .  S
O1421      C1431   1.278       .  A
O1422     Ni1427   1.912       .  S
O1422      C1432   1.278       .  A
O1423     Ni1428   1.920       .  S
O1423      C1432   1.283       .  A
O1424     Ni1428   1.921       .  S
O1424      C1431   1.284       .  A
O1425     Ni1428   1.914       .  S
O1425      C1430   1.279       .  A
O1426     Ni1428   1.914       .  S
O1426      C1429   1.279       .  A
Ni1427    Ni1428   2.382       .  S
C1429      C1790   1.471       .  S
C1430      C1822   1.493       .  S
C1431      C1717   1.499       .  S
C1432      C1685   1.489       .  S
O1433     Ni1441   1.914       .  S
O1433      C1443   1.279       .  A
O1434     Ni1441   1.914       .  S
O1434      C1444   1.279   1_655  A
O1435     Ni1441   1.922       .  S
O1436     Ni1441   1.920       .  S
O1436      C1446   1.281       .  A
O1437     Ni1442   1.915       .  S
O1438     Ni1442   1.915       .  S
O1438      C1445   1.280       .  A
O1439     Ni1442   1.913       .  S
O1440     Ni1442   1.914       .  S
C1443      C1653   1.495       .  S
C1444      C1621   1.490       .  S
C1445      C1589   1.482       .  S
C1446      C1758   1.484       .  S
O1447     Ni1455   1.925       .  S
O1447      C1457   1.282       .  A
O1448     Ni1455   1.925       .  S
O1448      C1458   1.285       .  A
O1449     Ni1455   1.913       .  S
O1450     Ni1455   1.912       .  S
O1450      C1460   1.278       .  A
O1451     Ni1456   1.923   1_455  S
O1452     Ni1456   1.921       .  S
O1452      C1459   1.281       .  A
O1453     Ni1456   1.904       .  S
O1454     Ni1456   1.903       .  S
C1457      C1662   1.495       .  S
C1458      C1630   1.490       .  S
C1459      C1557   1.476       .  S
C1460      C1694   1.472       .  S
O1461     Ni1469   1.923       .  S
O1461      C1471   1.282       .  A
O1462     Ni1469   1.926       .  S
O1462      C1472   1.283   1_554  A
O1463     Ni1469   1.916       .  S
O1464     Ni1469   1.921   1_556  S
O1464      C1474   1.283       .  A
O1465     Ni1470   1.927   1_545  S
O1466     Ni1470   1.926   1_554  S
O1466      C1473   1.285       .  A
O1467     Ni1470   1.915       .  S
O1468     Ni1470   1.915       .  S
C1471      C1502   1.471       .  S
C1472      C1534   1.482       .  S
C1473      C1854   1.502       .  S
C1474      C1566   1.501       .  S
O1475     Ni1483   1.919       .  S
O1476     Ni1483   1.921       .  S
O1477     Ni1483   1.921       .  S
O1478     Ni1483   1.927   1_556  S
O1478      C1488   1.284       .  A
O1479     Ni1484   1.918       .  S
O1480     Ni1484   1.918   1_554  S
O1480      C1487   1.280       .  A
O1481     Ni1484   1.915       .  S
O1481      C1486   1.282       .  A
O1482     Ni1484   1.916       .  S
O1482      C1485   1.280       .  A
C1485      C1493   1.475       .  S
C1486      C1525   1.500       .  S
C1487      C1726   1.482       .  S
C1488      C1598   1.501       .  S
C1489      C1494   1.406       .  A
C1490      C1491   1.415   1_556  A
C1491      C1492   1.406       .  A
C1491      C1496   1.519       .  S
C1492      C1493   1.403   1_554  A
C1492      H1497   1.083       .  S
C1494      C1498   1.519       .  S
C1495      C1504   1.402   1_556  A
C1496      F1512   1.382       .  S
C1496      F1513   1.382       .  S
C1496      F1514   1.384       .  S
C1498      F1509   1.382   1_565  S
C1498      F1510   1.385       .  S
C1498      F1511   1.383       .  S
C1500      C1501   1.406       .  A
C1500      C1505   1.520   1_655  S
C1501      H1506   1.083       .  S
C1502      C1503   1.413       .  A
C1503      C1504   1.405       .  A
C1503      C1507   1.514       .  S
C1504      H1508   1.084       .  S
C1505      F1518   1.384       .  S
C1505      F1519   1.382   1_554  S
C1505      F1520   1.382       .  S
C1507      F1515   1.385       .  S
C1507      F1516   1.380       .  S
C1507      F1517   1.383       .  S
C1521      C1526   1.410       .  A
C1521      H1531   1.084       .  S
C1522      C1527   1.488       .  S
C1522      C1523   1.412       .  A
C1523      C1524   1.406       .  A
C1523      C1528   1.520       .  S
C1524      C1525   1.411       .  A
C1524      H1529   1.083       .  S
C1526      C1530   1.521       .  S
C1527      C1536   1.402       .  A
C1528      F1544   1.382       .  S
C1528      F1545   1.382   1_556  S
C1528      F1546   1.384       .  S
C1530      F1541   1.383       .  S
C1530      F1542   1.385       .  S
C1530      F1543   1.384   1_554  S
C1532      C1533   1.409       .  A
C1532      C1537   1.519       .  S
C1533      H1538   1.083       .  S
C1534      C1535   1.419       .  A
C1535      C1536   1.409       .  A
C1535      C1539   1.518       .  S
C1536      H1540   1.083       .  S
C1537      F1550   1.385       .  S
C1537      F1551   1.382   1_545  S
C1537      F1552   1.382       .  S
C1539      F1547   1.382       .  S
C1539      F1548   1.383       .  S
C1539      F1549   1.385       .  S
C1553      C1554   1.405       .  A
C1553      C1558   1.410       .  A
C1553      H1563   1.084       .  S
C1554      C1559   1.485       .  S
C1554      C1555   1.417       .  A
C1555      C1556   1.403       .  A
C1555      C1560   1.522       .  S
C1556      C1557   1.402       .  A
C1556      H1561   1.085       .  S
C1557      C1558   1.415       .  A
C1558      C1562   1.517       .  S
C1559      C1564   1.411       .  A
C1559      C1568   1.398       .  A
C1560      F1576   1.382       .  S
C1560      F1577   1.382       .  S
C1560      F1578   1.385       .  S
C1562      F1573   1.384       .  S
C1562      F1574   1.385       .  S
C1562      F1575   1.382       .  S
C1564      C1565   1.409       .  A
C1564      C1569   1.520       .  S
C1565      C1566   1.413       .  A
C1565      H1570   1.083       .  S
C1566      C1567   1.429       .  A
C1567      C1568   1.408       .  A
C1567      C1571   1.521       .  S
C1568      H1572   1.084       .  S
C1569      F1582   1.384       .  S
C1569      F1583   1.382       .  S
C1569      F1584   1.382       .  S
C1571      F1579   1.385       .  S
C1571      F1580   1.382       .  S
C1571      F1581   1.383       .  S
C1585      C1586   1.402       .  A
C1585      C1590   1.409       .  A
C1585      H1595   1.082       .  S
C1586      C1591   1.484       .  S
C1586      C1587   1.417       .  A
C1587      C1588   1.407       .  A
C1587      C1592   1.521       .  S
C1588      C1589   1.404       .  A
C1588      H1593   1.082       .  S
C1589      C1590   1.420       .  A
C1590      C1594   1.519       .  S
C1591      C1596   1.410       .  A
C1591      C1600   1.397       .  A
C1592      F1608   1.382       .  S
C1592      F1609   1.382       .  S
C1594      F1605   1.385       .  S
C1594      F1606   1.382       .  S
C1594      F1607   1.384       .  S
C1596      C1597   1.410       .  A
C1596      C1601   1.518       .  S
C1597      C1598   1.413       .  A
C1597      H1602   1.082       .  S
C1598      C1599   1.430       .  A
C1599      C1600   1.406       .  A
C1600      H1604   1.083       .  S
C1601      F1614   1.384       .  S
C1601      F1615   1.383       .  S
C1601      F1616   1.382       .  S
C1603      F1611   1.385       .  S
C1603      F1612   1.383       .  S
C1603      F1613   1.384       .  S
C1617      C1622   1.406       .  A
C1617      H1627   1.083       .  S
C1618      C1619   1.412       .  A
C1619      C1620   1.404       .  A
C1619      C1624   1.520       .  S
C1620      C1621   1.409       .  A
C1620      H1625   1.082       .  S
C1622      C1626   1.521       .  S
C1623      C1628   1.413       .  A
C1624      F1640   1.382       .  S
C1624      F1641   1.382       .  S
C1624      F1642   1.385       .  S
C1626      F1637   1.385       .  S
C1626      F1638   1.383       .  S
C1626      F1639   1.383       .  S
C1628      C1629   1.406       .  A
C1628      C1633   1.519       .  S
C1629      C1630   1.408       .  A
C1629      H1634   1.083       .  S
C1631      C1632   1.405       .  A
C1631      C1635   1.522       .  S
C1632      H1636   1.084       .  S
C1633      F1646   1.384       .  S
C1633      F1647   1.382       .  S
C1633      F1648   1.382       .  S
C1635      F1643   1.385       .  S
C1635      F1644   1.383       .  S
C1635      F1645   1.384       .  S
C1649      C1654   1.407       .  A
C1649      H1659   1.084       .  S
C1650      C1651   1.412       .  A
C1651      C1652   1.403       .  A
C1652      H1657   1.083       .  S
C1653      C1654   1.429       .  A
C1654      C1658   1.522       .  S
C1655      C1660   1.411       .  A
C1656      F1672   1.382       .  S
C1656      F1673   1.383       .  S
C1658      F1669   1.384       .  S
C1658      F1670   1.385       .  S
C1658      F1671   1.383       .  S
C1660      C1661   1.402       .  A
C1661      H1666   1.082       .  S
C1662      C1663   1.426       .  A
C1663      C1664   1.409       .  A
C1663      C1667   1.520       .  S
C1664      H1668   1.083       .  S
C1665      F1679   1.382   1_545  S
C1665      F1680   1.382   1_545  S
C1667      F1675   1.385       .  S
C1667      F1676   1.383       .  S
C1667      F1677   1.383       .  S
C1681      C1682   1.399       .  A
C1681      C1686   1.406       .  A
C1681      H1691   1.082       .  S
C1682      C1687   1.481       .  S
C1682      C1683   1.415       .  A
C1683      C1684   1.406       .  A
C1683      C1688   1.521       .  S
C1684      C1685   1.408       .  A
C1684      H1689   1.082       .  S
C1685      C1686   1.425       .  A
C1686      C1690   1.521       .  S
C1687      C1692   1.416       .  A
C1687      C1696   1.401       .  A
C1688      F1704   1.382       .  S
C1688      F1705   1.381       .  S
C1688      F1706   1.385       .  S
C1690      F1701   1.383       .  S
C1690      F1702   1.385       .  S
C1690      F1703   1.384       .  S
C1692      C1693   1.409       .  A
C1692      C1697   1.519       .  S
C1693      C1694   1.403       .  A
C1693      H1698   1.083       .  S
C1694      C1695   1.415       .  A
C1695      C1696   1.402       .  A
C1695      C1699   1.518       .  S
C1696      H1700   1.083       .  S
C1697      F1710   1.385       .  S
C1697      F1711   1.382       .  S
C1697      F1712   1.381       .  S
C1699      F1707   1.382       .  S
C1699      F1708   1.382       .  S
C1699      F1709   1.385       .  S
C1713      C1714   1.398       .  A
C1713      C1718   1.407       .  A
C1713      H1723   1.084       .  S
C1714      C1719   1.484       .  S
C1714      C1715   1.410       .  A
C1715      C1716   1.407       .  A
C1715      C1720   1.519       .  S
C1716      C1717   1.412       .  A
C1716      H1721   1.082       .  S
C1717      C1718   1.430       .  A
C1718      C1722   1.522       .  S
C1719      C1724   1.417       .  A
C1719      C1728   1.401       .  A
C1720      F1736   1.383       .  S
C1720      F1737   1.382       .  S
C1720      F1738   1.384       .  S
C1722      F1733   1.383       .  S
C1722      F1734   1.385       .  S
C1722      F1735   1.384       .  S
C1724      C1725   1.405       .  A
C1724      C1729   1.522       .  S
C1725      C1726   1.404       .  A
C1725      H1730   1.086       .  S
C1726      C1727   1.419       .  A
C1727      C1728   1.409       .  A
C1727      C1731   1.518       .  S
C1728      H1732   1.086       .  S
C1729      F1742   1.384       .  S
C1729      F1743   1.382       .  S
C1729      F1744   1.382       .  S
C1731      F1739   1.385       .  S
C1745      C1746   1.396       .  A
C1745      C1750   1.405       .  A
C1745      H1755   1.084       .  S
C1746      C1751   1.483       .  S
C1746      C1747   1.411       .  A
C1747      C1748   1.409       .  A
C1747      C1752   1.519       .  S
C1748      C1749   1.412       .  A
C1748      H1753   1.082       .  S
C1749      C1750   1.430       .  A
C1750      C1754   1.522       .  S
C1751      C1756   1.416       .  A
C1751      C1760   1.401       .  A
C1752      F1768   1.382       .  S
C1752      F1769   1.381       .  S
C1752      F1770   1.384       .  S
C1754      F1765   1.383       .  S
C1754      F1766   1.385       .  S
C1754      F1767   1.384       .  S
C1756      C1757   1.406       .  A
C1756      C1761   1.522       .  S
C1757      C1758   1.405       .  A
C1757      H1762   1.083       .  S
C1758      C1759   1.420       .  A
C1759      C1760   1.408       .  A
C1759      C1763   1.519       .  S
C1760      H1764   1.083       .  S
C1761      F1774   1.385       .  S
C1761      F1775   1.382       .  S
C1761      F1776   1.381       .  S
C1763      F1771   1.382       .  S
C1763      F1772   1.384       .  S
C1777      C1778   1.403       .  A
C1777      C1782   1.406       .  A
C1778      C1779   1.417       .  A
C1779      C1780   1.406       .  A
C1780      C1781   1.400       .  A
C1780      H1785   1.083       .  S
C1781      C1782   1.413       .  A
C1782      C1786   1.518       .  S
C1783      C1788   1.417       .  A
C1783      C1792   1.403       .  A
C1784      F1800   1.382       .  S
C1784      F1801   1.382       .  S
C1786      F1797   1.383       .  S
C1786      F1798   1.384       .  S
C1786      F1799   1.383       .  S
C1788      C1789   1.407       .  A
C1789      C1790   1.401       .  A
C1789      H1794   1.084       .  S
C1790      C1791   1.414       .  A
C1791      C1792   1.407       .  A
C1791      C1795   1.517       .  S
C1793      F1807   1.382       .  S
C1793      F1808   1.382       .  S
C1795      F1803   1.384       .  S
C1795      F1804   1.383       .  S
C1795      F1805   1.382       .  S
C1809      C1810   1.398       .  A
C1809      C1814   1.408       .  A
C1809      H1819   1.082       .  S
C1810      C1815   1.486       .  S
C1810      C1811   1.412       .  A
C1811      C1812   1.408       .  A
C1811      C1816   1.520       .  S
C1812      C1813   1.411       .  A
C1812      H1817   1.081       .  S
C1813      C1814   1.430       .  A
C1814      C1818   1.522       .  S
C1815      C1820   1.414       .  A
C1815      C1824   1.399       .  A
C1816      F1832   1.382       .  S
C1816      F1833   1.382       .  S
C1816      F1834   1.384       .  S
C1818      F1829   1.385       .  S
C1818      F1830   1.383       .  S
C1818      F1831   1.383       .  S
C1820      C1821   1.406       .  A
C1820      C1825   1.520       .  S
C1821      C1822   1.408       .  A
C1821      H1826   1.083       .  S
C1822      C1823   1.426       .  A
C1823      C1824   1.408       .  A
C1823      C1827   1.521       .  S
C1824      H1828   1.084       .  S
C1825      F1838   1.384       .  S
C1825      F1839   1.382       .  S
C1825      F1840   1.382       .  S
C1827      F1835   1.385       .  S
C1827      F1836   1.383       .  S
C1827      F1837   1.384       .  S
C1841      C1842   1.402       .  A
C1841      C1846   1.409       .  A
C1841      H1851   1.084       .  S
C1842      C1847   1.488       .  S
C1842      C1843   1.417       .  A
C1843      C1844   1.406       .  A
C1843      C1848   1.520       .  S
C1844      C1845   1.403       .  A
C1844      H1849   1.085       .  S
C1845      C1846   1.420       .  A
C1846      C1850   1.518       .  S
C1847      C1852   1.411       .  A
C1847      C1856   1.399       .  A
C1848      F1864   1.382       .  S
C1848      F1865   1.382       .  S
C1848      F1866   1.385       .  S
C1850      F1861   1.385       .  S
C1850      F1862   1.382       .  S
C1850      F1863   1.384       .  S
C1852      C1853   1.407       .  A
C1852      C1857   1.519       .  S
C1853      C1854   1.411       .  A
C1853      H1858   1.082       .  S
C1854      C1855   1.430       .  A
C1855      C1856   1.410       .  A
C1856      H1860   1.084       .  S
C1857      F1870   1.384       .  S
C1857      F1871   1.383       .  S
C1857      F1872   1.383       .  S
C1859      F1867   1.383       .  S
C1859      F1868   1.382       .  S
