geometry optimzed in LAMMPS
_audit_creation_date              2020-12-01 
_audit_creation_method            'lammps2cif' 
_symmetry_space_group_name_H-M    'P1' 
_symmetry_Int_Tables_number       1 
_symmetry_cell_setting            triclinic 
loop_ 
_symmetry_equiv_pos_as_xyz 
  x,y,z 
_cell_length_a                    53.41462963 
_cell_length_b                    53.34951387776071 
_cell_length_c                    31.565526369275254 
_cell_angle_alpha                 90.03576317877285 
_cell_angle_beta                  89.92491375473486 
_cell_angle_gamma                 120.12415243214173 
loop_ 
_atom_site_label 
_atom_site_type_symbol 
_atom_site_fract_x 
_atom_site_fract_y 
_atom_site_fract_z 
_atom_site_charge 
C1          C  0.59143660  0.32729930  0.04860617     0.80800
N2          N  0.56208073  0.31360254  0.04798260    -0.77500
C3          C  0.54658845  0.30139372  0.08368893     0.83300
N4          N  0.56046402  0.30225727  0.12006024    -0.77400
C5          C  0.58981399  0.31554083  0.12126193     0.83400
N6          N  0.60518561  0.32783437  0.08519864    -0.79200
N7          N  0.36895877  0.17418832  0.05158981    -0.26700
N8          N  0.39443887  0.17729159  0.04192896    -0.34600
C9          C  0.39079455  0.15187205  0.02790172     0.01600
C10         C  0.36158705  0.13153232  0.02934632     0.07700
C11         C  0.34835500  0.14656232  0.04399330    -0.05400
H12         H  0.40821798  0.14871601  0.01708238     0.08300
H13         H  0.32542972  0.13796586  0.04895393     0.09500
Cu14       Cu  0.43307497  0.21573007  0.04934423     0.44200
Cu15       Cu  0.36403643  0.20815460  0.07434777     0.42000
Cu16       Cu  0.43078644  0.27385394  0.10510913     0.43900
N17         N  0.46960445  0.25326463  0.06871365    -0.34100
N18         N  0.46909009  0.27409767  0.09077709    -0.28300
C19         C  0.49653680  0.29451318  0.10002189    -0.04400
C20         C  0.51492029  0.28610476  0.08237800     0.07800
C21         C  0.49720087  0.25999945  0.06272359     0.01600
H22         H  0.50265304  0.31419054  0.11755592     0.09200
H23         H  0.50382305  0.24658890  0.04594175     0.08300
N24         N  0.38974888  0.26963743  0.10711105    -0.35500
N25         N  0.36564752  0.24590702  0.09581186    -0.27700
C26         C  0.34321581  0.25056293  0.10015083    -0.03000
C27         C  0.35365041  0.27864336  0.11434893     0.05700
C28         C  0.38321475  0.28997513  0.11884175     0.03700
H29         H  0.32094908  0.23476523  0.09304277     0.08900
H30         H  0.39887755  0.31132297  0.13006132     0.07700
C31         C  0.31653101  0.74079778  0.88845913     0.80800
N32         N  0.31696794  0.72855937  0.92591021    -0.77500
C33         C  0.30248332  0.73045348  0.95998809     0.83300
N34         N  0.28704831  0.74427509  0.95630041    -0.77400
C35         C  0.28611302  0.75609998  0.91868279     0.83400
N36         N  0.30063147  0.75409099  0.88474606    -0.79200
N37         N  0.22632468  0.87717091  0.92172000    -0.26700
N38         N  0.24739065  0.87526448  0.94058628    -0.34600
C39         C  0.26584461  0.90105818  0.95819394     0.01600
C40         C  0.25560967  0.91986134  0.95046106     0.07700
C41         C  0.23069227  0.90409620  0.92694361    -0.05400
H42         H  0.28552424  0.90594072  0.97467230     0.08300
H43         H  0.21717021  0.91182190  0.91355972     0.09500
Cu44       Cu  0.25090669  0.83816603  0.93846056     0.44200
Cu45       Cu  0.19367146  0.84373739  0.88734975     0.42000
Cu46       Cu  0.20457312  0.78438497  0.85989734     0.43900
N47         N  0.25406611  0.80216130  0.92152971    -0.34100
N48         N  0.23840752  0.78371237  0.89130496    -0.28300
C49         C  0.24740308  0.76446671  0.88579416    -0.04400
C50         C  0.26927859  0.77075930  0.91446425     0.07800
C51         C  0.27295360  0.79467552  0.93671286     0.01600
H52         H  0.23836394  0.74692126  0.86306163     0.09200
H53         H  0.28883234  0.80637324  0.96108994     0.08300
N54         N  0.16842992  0.78666107  0.84140749    -0.35500
N55         N  0.16449431  0.80840625  0.85200462    -0.27700
C56         C  0.13852965  0.80298066  0.83788842    -0.03000
C57         C  0.12554810  0.77671869  0.81680909     0.05700
C58         C  0.14494839  0.76675212  0.82019557     0.03700
H59         H  0.12941507  0.81669261  0.84408607     0.08900
H60         H  0.14188601  0.74622879  0.80900244     0.07700
C61         C  0.70742663  0.42958490  0.78741715     0.80800
N62         N  0.72250765  0.45899342  0.78774691    -0.77500
C63         C  0.73811248  0.47398823  0.75352863     0.83300
N64         N  0.73801086  0.45958296  0.71816586    -0.77400
C65         C  0.72181581  0.43027407  0.71603075     0.83400
N66         N  0.70677729  0.41534614  0.75115353    -0.79200
N67         N  0.86879117  0.65182221  0.72937786    -0.26700
N68         N  0.86910060  0.62773884  0.73799984    -0.34600
C69         C  0.89666749  0.63431570  0.74423307     0.01600
C70         C  0.91453187  0.66390026  0.73865697     0.07700
C71         C  0.89605867  0.67431020  0.72985998    -0.05400
H72         H  0.90306512  0.61879494  0.75335011     0.08300
H73         H  0.90197932  0.69666818  0.72476565     0.09500
Cu74       Cu  0.83166721  0.58743816  0.74276513     0.44200
Cu75       Cu  0.83129196  0.65335965  0.71964657     0.42000
Cu76       Cu  0.76426069  0.58908767  0.74723837     0.43900
N77         N  0.79090136  0.55080076  0.74892039    -0.34100
N78         N  0.76661993  0.55160091  0.75251286    -0.28300
C79         C  0.74423345  0.52438522  0.75634183    -0.04400
C80         C  0.75493947  0.50564862  0.75456869     0.07800
C81         C  0.78449745  0.52297797  0.74953792     0.01600
H82         H  0.72174608  0.51863430  0.75838798     0.09200
H83         H  0.80017798  0.51590714  0.74643983     0.08300
N84         N  0.76676378  0.62726235  0.72709293    -0.35500
N85         N  0.79128812  0.65055622  0.71611188    -0.27700
C86         C  0.78568016  0.67129599  0.70351470    -0.03000
C87         C  0.75615656  0.66046316  0.70626756     0.05700
C88         C  0.74487571  0.63259303  0.72189849     0.03700
H89         H  0.80189695  0.69269881  0.69308931     0.08900
H90         H  0.72254543  0.61731581  0.72944977     0.07700
C91         C  0.41434850  0.71527212  0.55605061     0.80800
N92         N  0.40187459  0.71423057  0.59398537    -0.77500
C93         C  0.41840998  0.72661890  0.62891733     0.83300
N94         N  0.44771317  0.74037409  0.62549883    -0.77400
C95         C  0.46029569  0.74193234  0.58746495     0.83400
N96         N  0.44359838  0.72970310  0.55282772    -0.79200
N97         N  0.63668647  0.86070151  0.52690064    -0.26700
N98         N  0.61129234  0.85706755  0.51538741    -0.34600
C99         C  0.61547540  0.88083410  0.49447748     0.01600
C100        C  0.64494728  0.90025734  0.49223888     0.07700
C101        C  0.65766086  0.88685794  0.51365147    -0.05400
H102        H  0.59828480  0.88409776  0.48280040     0.08300
H103        H  0.68032960  0.89582807  0.52089077     0.09500
Cu104      Cu  0.57206053  0.82119306  0.53205801     0.44200
Cu105      Cu  0.64175453  0.83090020  0.56262674     0.42000
Cu106      Cu  0.57582867  0.77030341  0.60369245     0.43900
N107        N  0.53618264  0.78720530  0.56094833    -0.34100
N108        N  0.53766129  0.76935724  0.58856635    -0.28300
C109        C  0.51090377  0.75088434  0.60315940    -0.04400
C110        C  0.49178356  0.75727270  0.58327349     0.07800
C111        C  0.50838429  0.78019127  0.55653811     0.01600
H112        H  0.50571490  0.73369438  0.62573560     0.09200
H113        H  0.50089424  0.79127650  0.53595719     0.08300
N114        N  0.61651046  0.77535040  0.61256762    -0.35500
N115        N  0.64067014  0.79761459  0.59806526    -0.27700
C116        C  0.66307331  0.79406032  0.60866602    -0.03000
C117        C  0.65255404  0.76843170  0.63123275     0.05700
C118        C  0.62286968  0.75697150  0.63238546     0.03700
H119        H  0.68535913  0.80882189  0.60003408     0.08900
H120        H  0.60673007  0.73631331  0.64539227     0.07700
N121        N  0.77554110  0.15915818  0.41826304    -0.26700
N122        N  0.74996318  0.15744768  0.41891273    -0.34600
C123        C  0.72932787  0.12940601  0.42297240     0.01600
C124        C  0.74266890  0.11286608  0.42450673     0.07700
C125        C  0.77192487  0.13245250  0.42192422    -0.05400
H126        H  0.70638368  0.12170747  0.42512511     0.08300
H127        H  0.78933842  0.12764118  0.42240160     0.09500
Cu128      Cu  0.74454101  0.19351336  0.41465946     0.44200
Cu129      Cu  0.81447383  0.19723511  0.41192444     0.42000
Cu130      Cu  0.81171174  0.26255525  0.40231975     0.43900
N131        N  0.74651193  0.23355710  0.41078133    -0.34100
N132        N  0.77109826  0.25850486  0.40735443    -0.28300
C133        C  0.76535224  0.28031787  0.40732042    -0.04400
C134        C  0.73578944  0.26861554  0.41018493     0.07800
C135        C  0.72440063  0.23894075  0.41240014     0.01600
H136        H  0.78153897  0.30305608  0.40516086     0.09200
H137        H  0.70184077  0.22255532  0.41581493     0.08300
N138        N  0.84959127  0.26109183  0.39543333    -0.35500
N139        N  0.85047768  0.23690645  0.39935334    -0.27700
C140        C  0.87775957  0.24265424  0.39333997    -0.03000
C141        C  0.89485416  0.27185351  0.38451368     0.05700
C142        C  0.87637790  0.28297015  0.38665177     0.03700
H143        H  0.88452332  0.22671832  0.39569935     0.08900
H144        H  0.88198121  0.30527511  0.38191789     0.07700
C145        C  0.69211713  0.30243341  0.38231866     0.80800
N146        N  0.70463796  0.28568393  0.38024994    -0.77500
C147        C  0.72044972  0.28489231  0.41332407     0.83300
N148        N  0.72386075  0.30099432  0.44838951    -0.77400
C149        C  0.71160941  0.31790955  0.45095930     0.83400
N150        N  0.69581653  0.31859795  0.41760311    -0.79200
C151        C  0.29934347  0.61495610  0.29602805     0.80800
N152        N  0.28546960  0.58569323  0.29264300    -0.77500
C153        C  0.27491289  0.57252514  0.25483151     0.83300
N154        N  0.27788254  0.58872733  0.21998174    -0.77400
C155        C  0.29129294  0.61812560  0.22299649     0.83400
N156        N  0.30227437  0.63090429  0.26090095    -0.79200
N157        N  0.21239308  0.39135895  0.22007636    -0.26700
N158        N  0.23490173  0.41548280  0.20582829    -0.34600
C159        C  0.25333678  0.40878025  0.18674990     0.01600
C160        C  0.24170079  0.37902957  0.18850728     0.07700
C161        C  0.21591756  0.36875638  0.21036492    -0.05400
H162        H  0.27407458  0.42447359  0.17354225     0.08300
H163        H  0.20127459  0.34663650  0.21999286     0.09500
Cu164      Cu  0.24083429  0.45675117  0.21589483     0.44200
Cu165      Cu  0.17866593  0.39012033  0.25449050     0.42000
Cu166      Cu  0.19076657  0.45886830  0.29165538     0.43900
N167        N  0.24400667  0.49499826  0.23832622    -0.34100
N168        N  0.22642364  0.49538032  0.26755778    -0.28300
C169        C  0.23483190  0.52296755  0.27748706    -0.04400
C170        C  0.25847424  0.54084248  0.25284134     0.07800
C171        C  0.26381059  0.52254405  0.22825033     0.01600
H172        H  0.22419175  0.52952793  0.30048439     0.09200
H173        H  0.28120367  0.52873654  0.20567637     0.08300
N174        N  0.15257474  0.42041199  0.30194875    -0.35500
N175        N  0.14797302  0.39513537  0.28781952    -0.27700
C176        C  0.12077103  0.37465261  0.29760737    -0.03000
C177        C  0.10751355  0.38771861  0.31850411     0.05700
C178        C  0.12847184  0.41672565  0.32119289     0.03700
H179        H  0.11109117  0.35200449  0.28923138     0.08900
H180        H  0.12649568  0.43400695  0.33565606     0.07700
C181        C  0.02775142  0.36427942  0.33034175    -0.11300
C182        C  0.01813394  0.33958751  0.35570284     0.11300
C183        C  0.03796415  0.33111380  0.36959608    -0.03100
C184        C  0.06725290  0.34829719  0.35816470    -0.05800
C185        C  0.07700486  0.37312334  0.33285666    -0.16600
C186        C  0.05695366  0.38130459  0.31839266     0.02300
C187        C  0.98670649  0.32206763  0.36463089     0.12300
C188        C  0.02806375  0.30357348  0.39511704     0.62900
H189        H  0.08278453  0.34207312  0.36806607     0.12300
C190        C  0.06578712  0.40695712  0.28899542     0.55000
H191        H  0.01191788  0.36983666  0.31947039     0.08100
C192        C  0.97339896  0.32934691  0.39741729    -0.05700
C193        C  0.94331823  0.31205106  0.40312509    -0.06400
C194        C  0.92639643  0.28827793  0.37675362    -0.16000
C195        C  0.93960451  0.28173174  0.34281816    -0.01600
C196        C  0.96974906  0.29878940  0.33757259    -0.09200
C197        C  0.99082588  0.35550229  0.42569773     0.65100
H198        H  0.93265400  0.31703294  0.42823377     0.10600
C199        C  0.92199463  0.25781000  0.31113595     0.63500
H200        H  0.98043453  0.29427387  0.31195770     0.07900
F201        F  0.08334788  0.43247544  0.31034107    -0.19600
F202        F  0.04205157  0.40822403  0.27419197    -0.15800
F203        F  0.08043066  0.40483343  0.25426318    -0.19300
F204        F  0.00946854  0.27979506  0.37102255    -0.22700
F205        F  0.01383025  0.30415621  0.43135784    -0.24100
F206        F  0.05110758  0.30020282  0.40723397    -0.18100
F207        F  0.93866415  0.25834059  0.27713850    -0.20600
F208        F  0.89963174  0.26107740  0.29542162    -0.21800
F209        F  0.91072446  0.23107005  0.33041711    -0.18900
F210        F  0.97371306  0.35817749  0.45628858    -0.19000
F211        F  0.00330243  0.38048918  0.40155648    -0.22900
F212        F  0.01239675  0.35307844  0.44605781    -0.24500
C213        C  0.69728940  0.97266542  0.44076251    -0.11300
C214        C  0.68659316  0.99003712  0.45645994     0.11300
C215        C  0.66055639  0.97734038  0.48005718    -0.03100
C216        C  0.64749778  0.94783280  0.49075526    -0.05800
C217        C  0.65915376  0.93069370  0.47730091    -0.16600
C218        C  0.68363264  0.94288342  0.45009299     0.02300
C219        C  0.70286482  0.02150056  0.44725847     0.12300
C220        C  0.64649859  0.99485318  0.49318061     0.62900
H221        H  0.62821762  0.93798223  0.51030489     0.12300
C222        C  0.69483040  0.92461520  0.42970756     0.55000
H223        H  0.71669775  0.98275623  0.42146180     0.08100
C224        C  0.72421960  0.04151577  0.47528488    -0.05700
C225        C  0.73655512  0.07129556  0.46690850    -0.06400
C226        C  0.72907113  0.08125015  0.43062561    -0.16000
C227        C  0.71013450  0.06109273  0.40031328    -0.01600
C228        C  0.69674551  0.03134509  0.40968183    -0.09200
C229        C  0.73445114  0.03135764  0.51300827     0.65100
H230        H  0.75220252  0.08710616  0.48862463     0.10600
C231        C  0.70522027  0.07091591  0.35758512     0.63500
H232        H  0.68125799  0.01547708  0.38786376     0.07900
F233        F  0.71003202  0.91831304  0.45903287    -0.19600
F234        F  0.71317735  0.93897974  0.39609658    -0.15800
F235        F  0.67200005  0.89909067  0.41420509    -0.19300
F236        F  0.64013934  0.00562557  0.45750137    -0.22700
F237        F  0.66496639  0.01775619  0.51875628    -0.24100
F238        F  0.62098886  0.97819293  0.51528804    -0.18100
F239        F  0.68916225  0.04771338  0.33081311    -0.20600
F240        F  0.73160398  0.08877290  0.33829305    -0.21800
F241        F  0.69054159  0.08588505  0.36270856    -0.18900
F242        F  0.75558363  0.05440558  0.53591588    -0.19000
F243        F  0.74602245  0.01476871  0.49887863    -0.22900
F244        F  0.71163303  0.01483338  0.54000275    -0.24500
C245        C  0.38209572  0.66937430  0.45733432    -0.11300
C246        C  0.35918389  0.67428279  0.44900987     0.11300
C247        C  0.35363266  0.69182750  0.47657931    -0.03100
C248        C  0.37231226  0.70496957  0.51119134    -0.05800
C249        C  0.39605999  0.70102037  0.51861682    -0.16600
C250        C  0.40098106  0.68269520  0.49148032     0.02300
C251        C  0.34203274  0.66091386  0.41030612     0.12300
C252        C  0.32785154  0.69609831  0.46995963     0.62900
H253        H  0.36857903  0.71857533  0.53273760     0.12300
C254        C  0.42569419  0.67676875  0.49848200     0.55000
H255        H  0.38547087  0.65546798  0.43589641     0.08100
C256        C  0.35222046  0.67347121  0.37002880    -0.05700
C257        C  0.33708604  0.65785919  0.33397996    -0.06400
C258        C  0.31261439  0.62991031  0.33674733    -0.16000
C259        C  0.30211822  0.61758919  0.37754276    -0.01600
C260        C  0.31717752  0.63354703  0.41365643    -0.09200
C261        C  0.37958214  0.70283789  0.36506687     0.65100
H262        H  0.34514279  0.66708093  0.30301165     0.10600
C263        C  0.27543723  0.58788111  0.38366510     0.63500
H264        H  0.31032368  0.62434319  0.44498776     0.07900
F265        F  0.45181596  0.70154455  0.49016697    -0.19600
F266        F  0.42365179  0.65508462  0.47207199    -0.15800
F267        F  0.42538048  0.66806870  0.53985076    -0.19300
F268        F  0.30253089  0.66991761  0.47511504    -0.22700
F269        F  0.32835131  0.70642197  0.42964985    -0.24100
F270        F  0.32771234  0.71568974  0.49862232    -0.18100
F271        F  0.28121532  0.56657063  0.37046978    -0.20600
F272        F  0.25246664  0.58599245  0.36082056    -0.21800
F273        F  0.26704457  0.58253853  0.42575458    -0.18900
F274        F  0.38466056  0.71179270  0.32322381    -0.19000
F275        F  0.40323211  0.70135651  0.37943471    -0.22900
F276        F  0.37726246  0.72360154  0.38811911    -0.24500
C277        C  0.68169653  0.72835031  0.69625241    -0.11300
C278        C  0.70102859  0.72728142  0.66727110     0.11300
C279        C  0.70544435  0.74093046  0.62730116    -0.03100
C280        C  0.68928405  0.75429478  0.61710678    -0.05800
C281        C  0.66930527  0.75472263  0.64562557    -0.16600
C282        C  0.66625993  0.74259405  0.68664295     0.02300
C283        C  0.71520038  0.71039044  0.67877612     0.12300
C284        C  0.72717058  0.74146068  0.59562535     0.62900
H285        H  0.69172658  0.76408367  0.58618837     0.12300
C286        C  0.64776267  0.74538231  0.72082913     0.55000
H287        H  0.67852400  0.71757506  0.72651891     0.08100
C288        C  0.73889743  0.72105043  0.70708378    -0.05700
C289        C  0.75138886  0.70380243  0.71542444    -0.06400
C290        C  0.74081842  0.67643926  0.69670220    -0.16000
C291        C  0.71725692  0.66594280  0.66802371    -0.01600
C292        C  0.70443292  0.68295583  0.66042045    -0.09200
C293        C  0.75084986  0.75037176  0.72846263     0.65100
H294        H  0.76951743  0.71148681  0.73706190     0.10600
C295        C  0.70647703  0.63772440  0.64388472     0.63500
H296        H  0.68598138  0.67514527  0.63938020     0.07900
F297        F  0.65422709  0.73916268  0.76054587    -0.19600
F298        F  0.61884566  0.72628686  0.71305662    -0.15800
F299        F  0.65261566  0.77340581  0.72194139    -0.19300
F300        F  0.71861325  0.71367895  0.58207177    -0.22700
F301        F  0.75413806  0.75322632  0.61431678    -0.24100
F302        F  0.72974249  0.75796104  0.56029430    -0.18100
F303        F  0.69226078  0.61449501  0.67109515    -0.20600
F304        F  0.72952548  0.63694852  0.62521184    -0.21800
F305        F  0.68732643  0.63468209  0.61205562    -0.18900
F306        F  0.77563191  0.75767264  0.75150220    -0.19000
F307        F  0.73044027  0.74983199  0.75597087    -0.22900
F308        F  0.75772512  0.77171689  0.69843271    -0.24500
C309        C  0.72494753  0.41034029  0.59970270    -0.11300
C310        C  0.71725867  0.38125396  0.60380627     0.11300
C311        C  0.71180090  0.36844745  0.64442589    -0.03100
C312        C  0.71347000  0.38524292  0.67988430    -0.05800
C313        C  0.72086753  0.41450226  0.67618457    -0.16600
C314        C  0.72667570  0.42734635  0.63493959     0.02300
C315        C  0.71540106  0.36491612  0.56465571     0.12300
C316        C  0.70482321  0.33733245  0.65029858     0.62900
H317        H  0.70946738  0.37559757  0.71109356     0.12300
C318        C  0.73411711  0.45849824  0.62703539     0.55000
H319        H  0.72952106  0.41958037  0.56816591     0.08100
C320        C  0.69061345  0.35274422  0.53841521    -0.05700
C321        C  0.69043725  0.33764695  0.50175251    -0.06400
C322        C  0.71422904  0.33456153  0.49032371    -0.16000
C323        C  0.73945637  0.34758122  0.51627309    -0.01600
C324        C  0.73945855  0.36258673  0.55303031    -0.09200
C325        C  0.66452722  0.35583185  0.54905696     0.65100
H326        H  0.67141290  0.32786892  0.48175913     0.10600
C327        C  0.76661766  0.34649217  0.50523157     0.63500
H328        H  0.75831972  0.37263208  0.57336084     0.07900
F329        F  0.73503391  0.46461037  0.58423389    -0.19600
F330        F  0.76109515  0.47745525  0.64365338    -0.15800
F331        F  0.71340089  0.46339820  0.64530824    -0.19300
F332        F  0.72847747  0.33493003  0.63859925    -0.22700
F333        F  0.68140925  0.31888981  0.62552426    -0.24100
F334        F  0.69810444  0.32836225  0.69198660    -0.18100
F335        F  0.78968971  0.36450735  0.53101756    -0.20600
F336        F  0.77468276  0.35534270  0.46379736    -0.21800
F337        F  0.76160236  0.31860761  0.51038261    -0.18900
F338        F  0.64220336  0.34125675  0.52039091    -0.19000
F339        F  0.67231931  0.38475506  0.54835200    -0.22900
F340        F  0.65418987  0.34469891  0.58890917    -0.24500
C341        C  0.99579676  0.69330563  0.73391992    -0.11300
C342        C  0.00546169  0.71433499  0.76591906     0.11300
C343        C  0.98565991  0.72089666  0.78578953    -0.03100
C344        C  0.95604979  0.70373166  0.77618019    -0.05800
C345        C  0.94610119  0.68139322  0.74606555    -0.16600
C346        C  0.96634909  0.67708741  0.72284501     0.02300
C347        C  0.03654232  0.72930224  0.77767151     0.12300
C348        C  0.99586407  0.74621253  0.81627207     0.62900
H349        H  0.94034447  0.70757106  0.79222752     0.12300
C350        C  0.95716218  0.65675400  0.68509798     0.55000
H351        H  0.01159931  0.68966304  0.71776519     0.08100
C352        C  0.04741389  0.71722448  0.80730469    -0.05700
C353        C  0.07687573  0.73312464  0.81834703    -0.06400
C354        C  0.09543291  0.76055317  0.80095541    -0.16000
C355        C  0.08483147  0.77194578  0.76970242    -0.01600
C356        C  0.05541274  0.75589493  0.75839485    -0.09200
C357        C  0.02785433  0.68785099  0.82746575     0.65100
H358        H  0.08553197  0.72459479  0.84163721     0.10600
C359        C  0.10442306  0.80067564  0.74795944     0.63500
H360        H  0.04667612  0.76428973  0.73501625     0.07900
F361        F  0.94040971  0.62838297  0.69829355    -0.19600
F362        F  0.98077378  0.65912539  0.66331900    -0.15800
F363        F  0.94137194  0.66345699  0.65728943    -0.19300
F364        F  0.01461625  0.77170325  0.79557321    -0.22700
F365        F  0.01002624  0.74260744  0.85027311    -0.24100
F366        F  0.97304367  0.74887233  0.83176863    -0.18100
F367        F  0.09114222  0.80473900  0.71311214    -0.20600
F368        F  0.12948008  0.80164020  0.73412989    -0.21800
F369        F  0.11146697  0.82320163  0.77585780    -0.18900
F370        F  0.04278537  0.68016323  0.85548157    -0.19000
F371        F  0.01603263  0.66675958  0.79644570    -0.22900
F372        F  0.00576083  0.68841134  0.84950121    -0.24500
C373        C  0.32360084  0.70446216  0.05840392    -0.11300
C374        C  0.29641564  0.68234477  0.07205019     0.11300
C375        C  0.27107526  0.67764711  0.05085754    -0.03100
C376        C  0.27405951  0.69403034  0.01437695    -0.05800
C377        C  0.30134123  0.71528244  0.99960319    -0.16600
C378        C  0.32653506  0.72134948  0.02253949     0.02300
C379        C  0.29524089  0.66556560  0.11013247     0.12300
C380        C  0.24110027  0.65593605  0.06720320     0.62900
H381        H  0.25506009  0.69027626  0.99685155     0.12300
C382        C  0.35612987  0.74626508  0.01028759     0.55000
H383        H  0.34253996  0.70834174  0.07621275     0.08100
C384        C  0.29857401  0.64093880  0.10774952    -0.05700
C385        C  0.29710457  0.62614854  0.14539572    -0.06400
C386        C  0.29357797  0.63587267  0.18520311    -0.16000
C387        C  0.29149988  0.66147170  0.18747025    -0.01600
C388        C  0.29218890  0.67566854  0.14958213    -0.09200
C389        C  0.30418340  0.63071888  0.06571267     0.65100
H390        H  0.29918904  0.60699379  0.14404441     0.10600
C391        C  0.28828748  0.67394333  0.22913348     0.63500
H392        H  0.29060687  0.69512942  0.15029895     0.07900
F393        F  0.36462081  0.74062307  0.97178047    -0.19600
F394        F  0.37698864  0.75064219  0.04001128    -0.15800
F395        F  0.35500058  0.77155187  0.00725982    -0.19300
F396        F  0.23735341  0.66391651  0.10733749    -0.22700
F397        F  0.23778361  0.62856014  0.06901105    -0.24100
F398        F  0.21949532  0.65461238  0.04146067    -0.18100
F399        F  0.31357654  0.68467395  0.25228540    -0.20600
F400        F  0.26538562  0.65277085  0.25218148    -0.21800
F401        F  0.28295820  0.69653864  0.22290889    -0.18900
F402        F  0.30696267  0.60643495  0.07049614    -0.19000
F403        F  0.32953716  0.65242681  0.04804202    -0.22900
F404        F  0.28161396  0.62383395  0.03805167    -0.24500
C405        C  0.39871252  0.72507843  0.74561991    -0.11300
C406        C  0.37569657  0.73051814  0.74228831     0.11300
C407        C  0.36664268  0.73438443  0.70192835    -0.03100
C408        C  0.38118996  0.73273048  0.66592790    -0.05800
C409        C  0.40434878  0.72740186  0.66901556    -0.16600
C410        C  0.41300175  0.72291382  0.70948751     0.02300
C411        C  0.36160271  0.73250986  0.78162015     0.12300
C412        C  0.34173164  0.74025320  0.69689254     0.62900
H413        H  0.37483805  0.73611625  0.63485851     0.12300
C414        C  0.43638838  0.71490140  0.71472457     0.55000
H415        H  0.40540427  0.72256050  0.77693494     0.08100
C416        C  0.34062957  0.70757078  0.80345859    -0.05700
C417        C  0.32643003  0.71123396  0.83844133    -0.06400
C418        C  0.33266212  0.73886591  0.85182206    -0.16000
C419        C  0.35464526  0.76382984  0.83116302    -0.01600
C420        C  0.36894682  0.76013799  0.79640349    -0.09200
C421        C  0.33335381  0.67733943  0.78982599     0.65100
H422        H  0.31006137  0.69249849  0.85542122     0.10600
C423        C  0.36347579  0.79417952  0.84633783     0.63500
H424        H  0.38563296  0.77883670  0.77974478     0.07900
F425        F  0.43741127  0.70632402  0.75577765    -0.19600
F426        F  0.46315842  0.73848731  0.70529098    -0.15800
F427        F  0.43095076  0.69212349  0.68805530    -0.19300
F428        F  0.34877642  0.76646222  0.71540121    -0.22700
F429        F  0.31712692  0.71843629  0.71605791    -0.24100
F430        F  0.33536153  0.74151486  0.65471641    -0.18100
F431        F  0.38725113  0.81516124  0.82439982    -0.20600
F432        F  0.37058303  0.79682610  0.88887197    -0.24200
F433        F  0.34095307  0.79954977  0.84051467    -0.18900
F434        F  0.31120233  0.65608259  0.81391965    -0.19000
F435        F  0.35741923  0.67429280  0.79446492    -0.22900
F436        F  0.32477079  0.67276778  0.74788092    -0.24500
C437        C  0.26087697  0.32580391  0.13825278    -0.11300
C438        C  0.28706857  0.33354247  0.15878201     0.11300
C439        C  0.29873298  0.35687497  0.18798815    -0.03100
C440        C  0.28306438  0.37100431  0.19683112    -0.05800
C441        C  0.25650824  0.36277156  0.17719406    -0.16600
C442        C  0.24527514  0.34007911  0.14695842     0.02300
C443        C  0.30286919  0.31823699  0.14670366     0.12300
C444        C  0.32767247  0.36694784  0.20951790     0.62900
H445        H  0.29142771  0.38870238  0.21936536     0.12300
C446        C  0.21766319  0.33184386  0.12274839     0.55000
H447        H  0.25288889  0.30855662  0.11500096     0.08100
C448        C  0.29599664  0.29100361  0.16393138    -0.05700
C449        C  0.31301303  0.27872976  0.15220632    -0.06400
C450        C  0.33640165  0.29279057  0.12398406    -0.16000
C451        C  0.34199788  0.31914236  0.10472479    -0.01600
C452        C  0.32499071  0.33135456  0.11649111    -0.09200
C453        C  0.27100936  0.27514819  0.19474386     0.65100
H454        H  0.30852073  0.25820657  0.16564315     0.10600
C455        C  0.36541494  0.33426074  0.07143392     0.63500
H456        H  0.32921769  0.35172495  0.10276732     0.07900
F457        F  0.19436420  0.32057161  0.15019486    -0.19600
F458        F  0.21214066  0.31120899  0.09195440    -0.15800
F459        F  0.22005570  0.35608929  0.10298046    -0.19300
F460        F  0.34941155  0.37641233  0.17951725    -0.22700
F461        F  0.32679075  0.34436970  0.23218759    -0.24100
F462        F  0.33465794  0.38962799  0.23728037    -0.18100
F463        F  0.36252370  0.35538342  0.05021507    -0.20600
F464        F  0.36388136  0.31449770  0.04166796    -0.21800
F465        F  0.39229050  0.34744468  0.09053098    -0.18900
F466        F  0.26768838  0.24871010  0.20689385    -0.19000
F467        F  0.24544862  0.26995245  0.17607473    -0.22900
F468        F  0.27581152  0.29172934  0.23071940    -0.24500
C469        C  0.33852773  0.05147885  0.01969024    -0.11300
C470        C  0.31626411  0.04220197  0.98976112     0.11300
C471        C  0.30855359  0.06211645  0.97346680    -0.03100
C472        C  0.32432157  0.09119855  0.98676814    -0.05800
C473        C  0.34704215  0.10070441  0.01609454    -0.16600
C474        C  0.35406798  0.08045938  0.03350042     0.02300
C475        C  0.30058601  0.01106867  0.97782772     0.12300
C476        C  0.28345360  0.05256733  0.94286489     0.62900
H477        H  0.31888191  0.10683416  0.97454134     0.12300
C478        C  0.37693333  0.08886702  0.06766610     0.55000
H479        H  0.34352380  0.03561995  0.03232799     0.08100
C480        C  0.31161777  0.99964649  0.94726632    -0.05700
C481        C  0.29613136  0.96966783  0.93903801    -0.06400
C482        C  0.27025212  0.95113106  0.96031778    -0.16000
C483        C  0.25926095  0.96253094  0.99088353    -0.01600
C484        C  0.27483315  0.99245805  0.99935606    -0.09200
C485        C  0.33983428  0.01894562  0.92407794     0.65100
H486        H  0.30419514  0.96035070  0.91600751     0.10600
C487        C  0.23161977  0.94300953  0.01507609     0.63500
H488        H  0.26711848  0.00165516  0.02311047     0.07900
F489        F  0.40413050  0.10627834  0.05065003    -0.19600
F490        F  0.37639551  0.06481553  0.08521538    -0.15800
F491        F  0.37221678  0.10355184  0.09997025    -0.19300
F492        F  0.25794387  0.03281721  0.96253483    -0.22700
F493        F  0.28761048  0.03976255  0.90755048    -0.24100
F494        F  0.28056110  0.07567107  0.92935078    -0.18100
F495        F  0.22572971  0.95816519  0.04530368    -0.20600
F496        F  0.23413728  0.92143291  0.03545446    -0.21800
F497        F  0.20851759  0.93049889  0.98734367    -0.18900
F498        F  0.34542310  0.00382170  0.89341045    -0.19000
F499        F  0.36252284  0.03025324  0.95256720    -0.22900
F500        F  0.33871939  0.04147215  0.90431771    -0.24500
C501        C  0.61107506  0.31711794  0.23761895    -0.11300
C502        C  0.63532600  0.31377110  0.23342253     0.11300
C503        C  0.64477618  0.31119969  0.19260130    -0.03100
C504        C  0.62970246  0.31260996  0.15693421    -0.05800
C505        C  0.60500408  0.31548674  0.16089098    -0.16600
C506        C  0.59558244  0.31799079  0.20210975     0.02300
C507        C  0.64952676  0.31162304  0.27262919     0.12300
C508        C  0.66999172  0.30588205  0.18688584     0.62900
H509        H  0.63654851  0.31040180  0.12554748     0.12300
C510        C  0.56952831  0.32179436  0.20919220     0.55000
H511        H  0.60407571  0.31852668  0.26929016     0.08100
C512        C  0.67119939  0.33640977  0.29391396    -0.05700
C513        C  0.68465009  0.33245868  0.32961864    -0.06400
C514        C  0.67626220  0.30470131  0.34534477    -0.16000
C515        C  0.65284007  0.28009584  0.32610614    -0.01600
C516        C  0.64019957  0.28399977  0.28944182    -0.09200
C517        C  0.67948081  0.36678896  0.27957353     0.65100
H518        H  0.70190940  0.35108495  0.34561039     0.10600
C519        C  0.64031227  0.25008009  0.34530688     0.63500
H520        H  0.62279851  0.26545107  0.27350590     0.07900
F521        F  0.56773637  0.32906635  0.25075186    -0.19600
F522        F  0.54437576  0.29617124  0.20014249    -0.15800
F523        F  0.57144421  0.34373526  0.18359567    -0.19300
F524        F  0.66273703  0.27909504  0.20347306    -0.22700
F525        F  0.69424497  0.32699500  0.20756580    -0.24100
F526        F  0.67708145  0.30622969  0.14460145    -0.18100
F527        F  0.61469849  0.23028138  0.32579985    -0.20600
F528        F  0.63449911  0.25103163  0.38782827    -0.21800
F529        F  0.65971863  0.24029024  0.34103310    -0.18900
F530        F  0.70161630  0.38783061  0.30390264    -0.19000
F531        F  0.65577236  0.37054979  0.28314777    -0.22900
F532        F  0.68856743  0.37101154  0.23785639    -0.24500
C533        C  0.68576175  0.40654639  0.90277948    -0.11300
C534        C  0.65943590  0.38075717  0.89752114     0.11300
C535        C  0.64909410  0.37051612  0.85618695    -0.03100
C536        C  0.66559821  0.38689716  0.82116012    -0.05800
C537        C  0.69181719  0.41317360  0.82624286    -0.16600
C538        C  0.70250527  0.42282561  0.86798736     0.02300
C539        C  0.64220589  0.36632867  0.93612508     0.12300
C540        C  0.62064904  0.34252271  0.84922552     0.62900
H541        H  0.65774022  0.37956444  0.78937357     0.12300
C542        C  0.73160019  0.44980244  0.87651155     0.55000
H543        H  0.69288172  0.41411111  0.93475992     0.08100
C544        C  0.64826164  0.34858352  0.96253156    -0.05700
C545        C  0.63110318  0.33620031  0.99893092    -0.06400
C546        C  0.60836519  0.34112626  0.00958063    -0.16000
C547        C  0.60293364  0.35963841  0.98362176    -0.01600
C548        C  0.62019833  0.37205567  0.94744054    -0.09200
C549        C  0.67290961  0.34305926  0.95256173     0.65100
H550        H  0.63525840  0.32241154  0.01939948     0.10600
C551        C  0.57953168  0.36691628  0.99420650     0.63500
H552        H  0.61653983  0.38631343  0.92724530     0.07900
F553        F  0.73988097  0.45145293  0.91844075    -0.19600
F554        F  0.73001071  0.47434696  0.86765765    -0.15800
F555        F  0.75285962  0.44946541  0.85183169    -0.19300
F556        F  0.59803611  0.34492845  0.86599876    -0.22700
F557        F  0.62149011  0.31979128  0.86879250    -0.24100
F558        F  0.61506235  0.33591097  0.80662949    -0.18100
F559        F  0.58154384  0.38911940  0.96906280    -0.20600
F560        F  0.58200480  0.37569274  0.03599424    -0.21800
F561        F  0.55254800  0.34285676  0.98767787    -0.18900
F562        F  0.67393140  0.32378522  0.98087850    -0.19000
F563        F  0.69900892  0.36876501  0.95467952    -0.22900
F564        F  0.66959068  0.33158248  0.91233379    -0.24500
loop_ 
_geom_bond_atom_site_label_1 
_geom_bond_atom_site_label_2 
_geom_bond_distance 
_geom_bond_site_symmetry_2 
_ccdc_geom_bond_type 
C1            N2   1.358       .  A
C1            N6   1.362       .  A
C1          C546   1.486       .  S
N2            C3   1.355       .  A
C3            N4   1.356       .  A
C3           C20   1.464       .  S
N4            C5   1.359       .  A
C5            N6   1.363       .  A
C5          C505   1.493       .  S
N7           C11   1.346       .  A
N7            N8   1.321       .  A
N7          Cu15   2.084       .  S
N8            C9   1.344       .  A
N8          Cu14   2.067       .  S
C9           C10   1.384       .  A
C9           H12   1.081       .  S
C10         C473   1.484       .  S
C10          C11   1.387       .  A
C11          H13   1.082       .  S
Cu14         N17   2.067       .  S
Cu15         N25   2.085       .  S
Cu16         N18   2.088       .  S
Cu16         N24   2.089       .  S
N17          C21   1.344       .  A
N17          N18   1.323       .  A
N18          C19   1.349       .  A
C19          C20   1.384       .  A
C19          H22   1.082       .  S
C20          C21   1.378       .  A
C21          H23   1.082       .  S
N24          C28   1.347       .  A
N24          N25   1.324       .  A
N25          C26   1.347       .  A
C26          C27   1.385       .  A
C26          H29   1.081       .  S
C27         C450   1.486       .  S
C27          C28   1.386       .  A
C28          H30   1.080       .  S
C31          N32   1.357       .  A
C31          N36   1.358       .  A
C31         C418   1.475       .  S
N32          C33   1.357       .  A
C33          N34   1.359       .  A
C33         C377   1.474       .  S
N34          C35   1.358       .  A
C35          N36   1.357       .  A
C35          C50   1.464       .  S
N37          C41   1.345       .  A
N37          N38   1.322       .  A
N37         Cu45   2.069       .  S
N38          C39   1.347       .  A
N38         Cu44   2.081       .  S
C39          C40   1.384       .  A
C39          H42   1.082       .  S
C40         C482   1.477       .  S
C40          C41   1.381       .  A
C41          H43   1.082       .  S
Cu44         N47   2.080       .  S
Cu45         N55   2.069       .  S
Cu46         N48   2.078       .  S
Cu46         N54   2.079       .  S
N47          C51   1.346       .  A
N47          N48   1.324       .  A
N48          C49   1.345       .  A
C49          C50   1.380       .  A
C49          H52   1.082       .  S
C50          C51   1.381       .  A
C51          H53   1.082       .  S
N54          C58   1.347       .  A
N54          N55   1.321       .  A
N55          C56   1.343       .  A
C56          C57   1.383       .  A
C56          H59   1.080       .  S
C57         C354   1.480       .  S
C57          C58   1.386       .  A
C58          H60   1.082       .  S
C61          N62   1.357       .  A
C61          N66   1.364       .  A
C61         C537   1.493       .  S
N62          C63   1.353       .  A
C63          N64   1.353       .  A
C63          C80   1.462       .  S
N64          C65   1.356       .  A
C65          N66   1.366       .  A
C65         C313   1.500       .  S
N67          C71   1.344       .  A
N67          N68   1.322       .  A
N67         Cu75   2.069       .  S
N68          C69   1.346       .  A
N68         Cu74   2.080       .  S
C69          C70   1.386       .  A
C69          H72   1.082       .  S
C70         C345   1.480       .  S
C70          C71   1.382       .  A
C71          H73   1.082       .  S
Cu74         N77   2.080       .  S
Cu75         N85   2.069       .  S
Cu76         N78   2.073       .  S
Cu76         N84   2.073       .  S
N77          C81   1.346       .  A
N77          N78   1.324       .  A
N78          C79   1.345       .  A
C79          C80   1.379       .  A
C79          H82   1.082       .  S
C80          C81   1.381       .  A
C81          H83   1.082       .  S
N84          C88   1.345       .  A
N84          N85   1.321       .  A
N85          C86   1.344       .  A
C86          C87   1.383       .  A
C86          H89   1.081       .  S
C87         C290   1.480       .  S
C87          C88   1.385       .  A
C88          H90   1.081       .  S
C91          N92   1.357       .  A
C91          N96   1.355       .  A
C91         C249   1.478       .  S
N92          C93   1.360       .  A
C93          N94   1.359       .  A
C93         C409   1.482       .  S
N94          C95   1.357       .  A
C95          N96   1.354       .  A
C95         C110   1.461       .  S
N97         C101   1.344       .  A
N97          N98   1.322       .  A
N97        Cu105   2.076       .  S
N98          C99   1.345       .  A
N98        Cu104   2.075       .  S
C99         C100   1.385       .  A
C99         H102   1.082       .  S
C100        C217   1.483       .  S
C100        C101   1.385       .  A
C101        H103   1.080       .  S
Cu104       N107   2.074       .  S
Cu105       N115   2.075       .  S
Cu106       N108   2.070       .  S
Cu106       N114   2.071       .  S
N107        C111   1.344       .  A
N107        N108   1.323       .  A
N108        C109   1.346       .  A
C109        C110   1.380       .  A
C109        H112   1.082       .  S
C110        C111   1.380       .  A
C111        H113   1.082       .  S
N114        C118   1.343       .  A
N114        N115   1.321       .  A
N115        C116   1.345       .  A
C116        C117   1.386       .  A
C116        H119   1.082       .  S
C117        C281   1.483       .  S
C117        C118   1.384       .  A
C118        H120   1.083       .  S
N121        C125   1.343       .  A
N121        N122   1.323       .  A
N121       Cu129   2.062       .  S
N122        C123   1.347       .  A
N122       Cu128   2.089       .  S
C123        C124   1.386       .  A
C123        H126   1.082       .  S
C124        C226   1.477       .  S
C124        C125   1.379       .  A
C125        H127   1.082       .  S
Cu128       N131   2.089       .  S
Cu129       N139   2.061       .  S
Cu130       N132   2.075       .  S
Cu130       N138   2.075       .  S
N131        C135   1.349       .  A
N131        N132   1.324       .  A
N132        C133   1.344       .  A
C133        C134   1.379       .  A
C133        H136   1.082       .  S
C134        C147   1.466       .  S
C134        C135   1.384       .  A
C135        H137   1.082       .  S
N138        C142   1.345       .  A
N138        N139   1.321       .  A
N139        C140   1.343       .  A
C140        C141   1.382       .  A
C140        H143   1.080       .  S
C141        C194   1.478       .  S
C141        C142   1.385       .  A
C142        H144   1.082       .  S
C145        N146   1.360       .  A
C145        N150   1.361       .  A
C145        C514   1.483       .  S
N146        C147   1.358       .  A
C147        N148   1.356       .  A
N148        C149   1.357       .  A
C149        N150   1.362       .  A
C149        C322   1.492       .  S
C151        N152   1.355       .  A
C151        N156   1.358       .  A
C151        C258   1.491       .  S
N152        C153   1.356       .  A
C153        N154   1.359       .  A
C153        C170   1.464       .  S
N154        C155   1.362       .  A
C155        N156   1.356       .  A
C155        C386   1.490       .  S
N157        C161   1.346       .  A
N157        N158   1.323       .  A
N157       Cu165   2.075       .  S
N158        C159   1.346       .  A
N158       Cu164   2.085       .  S
C159        C160   1.385       .  A
C159        H162   1.082       .  S
C160        C441   1.481       .  S
C160        C161   1.383       .  A
C161        H163   1.082       .  S
Cu164       N167   2.084       .  S
Cu165       N175   2.074       .  S
Cu166       N168   2.068       .  S
Cu166       N174   2.067       .  S
N167        C171   1.349       .  A
N167        N168   1.323       .  A
N168        C169   1.343       .  A
C169        C170   1.378       .  A
C169        H172   1.082       .  S
C170        C171   1.384       .  A
C171        H173   1.082       .  S
N174        C178   1.345       .  A
N174        N175   1.321       .  A
N175        C176   1.344       .  A
C176        C177   1.384       .  A
C176        H179   1.082       .  S
C177        C185   1.481       .  S
C177        C178   1.384       .  A
C178        H180   1.080       .  S
C181        C182   1.400       .  A
C181        C186   1.406       .  A
C181        H191   1.083       .  S
C182        C187   1.482   1_455  S
C182        C183   1.414       .  A
C183        C184   1.406       .  A
C183        C188   1.519       .  S
C184        C185   1.404       .  A
C184        H189   1.083       .  S
C185        C186   1.420       .  A
C186        C190   1.520       .  S
C187        C192   1.415       .  A
C187        C196   1.401       .  A
C188        F204   1.382       .  S
C188        F205   1.382       .  S
C188        F206   1.385       .  S
C190        F201   1.381       .  S
C190        F202   1.385       .  S
C190        F203   1.383       .  S
C192        C193   1.406       .  A
C192        C197   1.519       .  S
C193        C194   1.403       .  A
C193        H198   1.083       .  S
C194        C195   1.418       .  A
C195        C196   1.406       .  A
C195        C199   1.520       .  S
C196        H200   1.084       .  S
C197        F210   1.384       .  S
C197        F211   1.382   1_655  S
C197        F212   1.382   1_655  S
C199        F207   1.385       .  S
C199        F208   1.383       .  S
C199        F209   1.381       .  S
C213        C214   1.400       .  A
C213        C218   1.407       .  A
C213        H223   1.084       .  S
C214        C219   1.481   1_565  S
C214        C215   1.414       .  A
C215        C216   1.406       .  A
C215        C220   1.520       .  S
C216        C217   1.405       .  A
C216        H221   1.083       .  S
C217        C218   1.419       .  A
C218        C222   1.518       .  S
C219        C224   1.415       .  A
C219        C228   1.401       .  A
C220        F236   1.383   1_565  S
C220        F237   1.382   1_565  S
C220        F238   1.384       .  S
C222        F233   1.380       .  S
C222        F234   1.385       .  S
C222        F235   1.384       .  S
C224        C225   1.406       .  A
C224        C229   1.520       .  S
C225        C226   1.403       .  A
C225        H230   1.083       .  S
C226        C227   1.416       .  A
C227        C228   1.407       .  A
C227        C231   1.517       .  S
C228        H232   1.083       .  S
C229        F242   1.384       .  S
C229        F243   1.383       .  S
C229        F244   1.381       .  S
C231        F239   1.385       .  S
C231        F240   1.384       .  S
C231        F241   1.381       .  S
C245        C246   1.399       .  A
C245        C250   1.402       .  A
C245        H255   1.084       .  S
C246        C251   1.479       .  S
C246        C247   1.414       .  A
C247        C248   1.407       .  A
C247        C252   1.519       .  S
C248        C249   1.406       .  A
C248        H253   1.083       .  S
C249        C250   1.419       .  A
C250        C254   1.520       .  S
C251        C256   1.412       .  A
C251        C260   1.400       .  A
C252        F268   1.382       .  S
C252        F269   1.382       .  S
C252        F270   1.385       .  S
C254        F265   1.382       .  S
C254        F266   1.385       .  S
C254        F267   1.383       .  S
C256        C257   1.403       .  A
C256        C261   1.522       .  S
C257        C258   1.408       .  A
C257        H262   1.082       .  S
C258        C259   1.426       .  A
C259        C260   1.409       .  A
C259        C263   1.521       .  S
C260        H264   1.083       .  S
C261        F274   1.384       .  S
C261        F275   1.382       .  S
C261        F276   1.381       .  S
C263        F271   1.383       .  S
C263        F272   1.383       .  S
C263        F273   1.385       .  S
C277        C278   1.401       .  A
C277        C282   1.407       .  A
C277        H287   1.084       .  S
C278        C283   1.484       .  S
C278        C279   1.416       .  A
C279        C280   1.406       .  A
C279        C284   1.520       .  S
C280        C281   1.404       .  A
C280        H285   1.084       .  S
C281        C282   1.420       .  A
C282        C286   1.519       .  S
C283        C288   1.416       .  A
C283        C292   1.401       .  A
C284        F300   1.381       .  S
C284        F301   1.382       .  S
C284        F302   1.385       .  S
C286        F297   1.385       .  S
C286        F298   1.380       .  S
C286        F299   1.384       .  S
C288        C289   1.407       .  A
C288        C293   1.519       .  S
C289        C290   1.404       .  A
C289        H294   1.084       .  S
C290        C291   1.418       .  A
C291        C292   1.405       .  A
C291        C295   1.519       .  S
C292        H296   1.084       .  S
C293        F306   1.385       .  S
C293        F307   1.382       .  S
C293        F308   1.382       .  S
C295        F303   1.380       .  S
C295        F304   1.383       .  S
C295        F305   1.385       .  S
C309        C310   1.398       .  A
C309        C314   1.408       .  A
C309        H319   1.083       .  S
C310        C315   1.486       .  S
C310        C311   1.413       .  A
C311        C312   1.408       .  A
C311        C316   1.519       .  S
C312        C313   1.410       .  A
C312        H317   1.082       .  S
C313        C314   1.431       .  A
C314        C318   1.523       .  S
C315        C320   1.414       .  A
C315        C324   1.400       .  A
C316        F332   1.382       .  S
C316        F333   1.382       .  S
C316        F334   1.384       .  S
C318        F329   1.385       .  S
C318        F330   1.383       .  S
C318        F331   1.383       .  S
C320        C321   1.407       .  A
C320        C325   1.520       .  S
C321        C322   1.407       .  A
C321        H326   1.083       .  S
C322        C323   1.425       .  A
C323        C324   1.409       .  A
C323        C327   1.521       .  S
C324        H328   1.083       .  S
C325        F338   1.384       .  S
C325        F339   1.382       .  S
C325        F340   1.382       .  S
C327        F335   1.385       .  S
C327        F336   1.384       .  S
C327        F337   1.383       .  S
C341        C342   1.401   1_655  A
C341        C346   1.407       .  A
C341        H351   1.083   1_655  S
C342        C347   1.484       .  S
C342        C343   1.416   1_455  A
C343        C344   1.407       .  A
C343        C348   1.519       .  S
C344        C345   1.404       .  A
C344        H349   1.083       .  S
C345        C346   1.417       .  A
C346        C350   1.518       .  S
C347        C352   1.416       .  A
C347        C356   1.401       .  A
C348        F364   1.383   1_655  S
C348        F365   1.382   1_655  S
C348        F366   1.385       .  S
C350        F361   1.380       .  S
C350        F362   1.385       .  S
C350        F363   1.384       .  S
C352        C353   1.407       .  A
C352        C357   1.519       .  S
C353        C354   1.403       .  A
C353        H358   1.083       .  S
C354        C355   1.418       .  A
C355        C356   1.407       .  A
C355        C359   1.518       .  S
C356        H360   1.084       .  S
C357        F370   1.385       .  S
C357        F371   1.382       .  S
C357        F372   1.382       .  S
C359        F367   1.385       .  S
C359        F368   1.383       .  S
C359        F369   1.381       .  S
C373        C374   1.402       .  A
C373        C378   1.406       .  A
C373        H383   1.083       .  S
C374        C379   1.482       .  S
C374        C375   1.416       .  A
C375        C376   1.406       .  A
C375        C380   1.519       .  S
C376        C377   1.402   1_554  A
C376        H381   1.083   1_554  S
C377        C378   1.416   1_556  A
C378        C382   1.518       .  S
C379        C384   1.414       .  A
C379        C388   1.398       .  A
C380        F396   1.382       .  S
C380        F397   1.381       .  S
C380        F398   1.385       .  S
C382        F393   1.382   1_554  S
C382        F394   1.385       .  S
C382        F395   1.384       .  S
C384        C385   1.407       .  A
C384        C389   1.520       .  S
C385        C386   1.407       .  A
C385        H390   1.083       .  S
C386        C387   1.426       .  A
C387        C388   1.407       .  A
C387        C391   1.521       .  S
C388        H392   1.083       .  S
C389        F402   1.384       .  S
C389        F403   1.382       .  S
C389        F404   1.381       .  S
C391        F399   1.383       .  S
C391        F400   1.383       .  S
C391        F401   1.385       .  S
C405        C406   1.402       .  A
C405        C410   1.408       .  A
C405        H415   1.083       .  S
C406        C411   1.482       .  S
C406        C407   1.415       .  A
C407        C408   1.403       .  A
C407        C412   1.521       .  S
C408        C409   1.405       .  A
C408        H413   1.083       .  S
C409        C410   1.420       .  A
C410        C414   1.519       .  S
C411        C416   1.415       .  A
C411        C420   1.401       .  A
C412        F428   1.382       .  S
C412        F429   1.383       .  S
C412        F430   1.385       .  S
C414        F425   1.385       .  S
C414        F426   1.382       .  S
C414        F427   1.384       .  S
C416        C417   1.407       .  A
C416        C421   1.519       .  S
C417        C418   1.403       .  A
C417        H422   1.083       .  S
C418        C419   1.417       .  A
C419        C420   1.405       .  A
C419        C423   1.519       .  S
C420        H424   1.083       .  S
C421        F434   1.384       .  S
C421        F435   1.382       .  S
C421        F436   1.383       .  S
C423        F431   1.385       .  S
C423        F432   1.383       .  S
C423        F433   1.382       .  S
C437        C438   1.404       .  A
C437        C442   1.409       .  A
C437        H447   1.083       .  S
C438        C443   1.488       .  S
C438        C439   1.417       .  A
C439        C440   1.407       .  A
C439        C444   1.519       .  S
C440        C441   1.402       .  A
C440        H445   1.083       .  S
C441        C442   1.417       .  A
C442        C446   1.518       .  S
C443        C448   1.417       .  A
C443        C452   1.401       .  A
C444        F460   1.382       .  S
C444        F461   1.382       .  S
C444        F462   1.385       .  S
C446        F457   1.381       .  S
C446        F458   1.385       .  S
C446        F459   1.383       .  S
C448        C449   1.410       .  A
C448        C453   1.519       .  S
C449        C450   1.405       .  A
C449        H454   1.083       .  S
C450        C451   1.419       .  A
C451        C452   1.407       .  A
C451        C455   1.518       .  S
C452        H456   1.083       .  S
C453        F466   1.385       .  S
C453        F467   1.382       .  S
C453        F468   1.382       .  S
C455        F463   1.385       .  S
C455        F464   1.383       .  S
C455        F465   1.381       .  S
C469        C470   1.401   1_554  A
C469        C474   1.408       .  A
C469        H479   1.083       .  S
C470        C475   1.485       .  S
C470        C471   1.415       .  A
C471        C472   1.408       .  A
C471        C476   1.519       .  S
C472        C473   1.404   1_556  A
C472        H477   1.083       .  S
C473        C474   1.420       .  A
C474        C478   1.520       .  S
C475        C480   1.417   1_545  A
C475        C484   1.403   1_545  A
C476        F492   1.382       .  S
C476        F493   1.382       .  S
C476        F494   1.385       .  S
C478        F489   1.381       .  S
C478        F490   1.385       .  S
C478        F491   1.383       .  S
C480        C481   1.408       .  A
C480        C485   1.519   1_565  S
C481        C482   1.402       .  A
C481        H486   1.084       .  S
C482        C483   1.415       .  A
C483        C484   1.407       .  A
C483        C487   1.517   1_556  S
C484        H488   1.084   1_566  S
C485        F498   1.385       .  S
C485        F499   1.382       .  S
C485        F500   1.382       .  S
C487        F495   1.384       .  S
C487        F496   1.383       .  S
C487        F497   1.382   1_554  S
C501        C502   1.400       .  A
C501        C506   1.409       .  A
C501        H511   1.083       .  S
C502        C507   1.487       .  S
C502        C503   1.415       .  A
C503        C504   1.409       .  A
C503        C508   1.520       .  S
C504        C505   1.408       .  A
C504        H509   1.082       .  S
C505        C506   1.425       .  A
C506        C510   1.520       .  S
C507        C512   1.416       .  A
C507        C516   1.402       .  A
C508        F524   1.382       .  S
C508        F525   1.382       .  S
C508        F526   1.385       .  S
C510        F521   1.385       .  S
C510        F522   1.383       .  S
C510        F523   1.384       .  S
C512        C513   1.409       .  A
C512        C517   1.519       .  S
C513        C514   1.405       .  A
C513        H518   1.083       .  S
C514        C515   1.418       .  A
C515        C516   1.408       .  A
C515        C519   1.518       .  S
C516        H520   1.083       .  S
C517        F530   1.385       .  S
C517        F531   1.383       .  S
C517        F532   1.382       .  S
C519        F527   1.385       .  S
C519        F528   1.384       .  S
C519        F529   1.381       .  S
C533        C534   1.399       .  A
C533        C538   1.407       .  A
C533        H543   1.083       .  S
C534        C539   1.487       .  S
C534        C535   1.416       .  A
C535        C536   1.410       .  A
C535        C540   1.520       .  S
C536        C537   1.408       .  A
C536        H541   1.082       .  S
C537        C538   1.426       .  A
C538        C542   1.521       .  S
C539        C544   1.416       .  A
C539        C548   1.401       .  A
C540        F556   1.382       .  S
C540        F557   1.382       .  S
C540        F558   1.384       .  S
C542        F553   1.385       .  S
C542        F554   1.383       .  S
C542        F555   1.384       .  S
C544        C545   1.410       .  A
C544        C549   1.519       .  S
C545        C546   1.406   1_556  A
C545        H550   1.083   1_556  S
C546        C547   1.421   1_554  A
C547        C548   1.407       .  A
C547        C551   1.520       .  S
C548        H552   1.083       .  S
C549        F562   1.385       .  S
C549        F563   1.382       .  S
C549        F564   1.382       .  S
C551        F559   1.385       .  S
C551        F560   1.384   1_556  S
C551        F561   1.382       .  S
