geometry optimzed in LAMMPS
_audit_creation_date              2020-12-01 
_audit_creation_method            'lammps2cif' 
_symmetry_space_group_name_H-M    'P1' 
_symmetry_Int_Tables_number       1 
_symmetry_cell_setting            triclinic 
loop_ 
_symmetry_equiv_pos_as_xyz 
  x,y,z 
_cell_length_a                    61.38656169 
_cell_length_b                    61.19987016291648 
_cell_length_c                    30.87696459545817 
_cell_angle_alpha                 89.63602496669233 
_cell_angle_beta                  90.41965023498285 
_cell_angle_gamma                 90.09365135289316 
loop_ 
_atom_site_label 
_atom_site_type_symbol 
_atom_site_fract_x 
_atom_site_fract_y 
_atom_site_fract_z 
_atom_site_charge 
O1          O  0.32248131  0.33024743  0.03397402    -0.56300
C2          C  0.35445087  0.28237181  0.11092713     0.76400
O3          O  0.37435357  0.29070017  0.98587922    -0.57400
C4          C  0.32648800  0.33844658  0.99698099     0.76300
C5          C  0.38850316  0.34397959  0.08035806     0.78700
Cd6        Cd  0.35832383  0.31358619  0.04324430     1.37500
O7          O  0.34039082  0.29745711  0.10635304    -0.56300
O8          O  0.36917009  0.34158092  0.09355398    -0.55100
C9          C  0.35695173  0.27949688  0.98137489     0.78700
O10         O  0.39436930  0.33204941  0.04895497    -0.57400
O11         O  0.37053338  0.28263001  0.08552765    -0.55900
O12         O  0.34605964  0.33744310  0.98437017    -0.55900
O13         O  0.34093912  0.28480067  0.00451554    -0.55100
O14         O  0.44508709  0.46582263  0.24556512    -0.56300
C15         C  0.49375445  0.45459328  0.14042917     0.76400
O16         O  0.50002506  0.42290562  0.25089053    -0.57400
C17         C  0.44024983  0.45313897  0.27695797     0.76300
C18         C  0.44342337  0.40742127  0.16877097     0.78700
Cd19       Cd  0.46934895  0.43943439  0.21121638     1.37500
O20         O  0.47881167  0.46698930  0.15476632    -0.56300
O21         O  0.44145730  0.42770153  0.16096482    -0.55100
C22         C  0.50732402  0.44127360  0.26364444     0.78700
O23         O  0.45778019  0.40194784  0.19667051    -0.57400
O24         O  0.49581204  0.43580829  0.15719628    -0.55900
O25         O  0.44801396  0.43402110  0.27553464    -0.55900
O26         O  0.49670147  0.45816983  0.25274404    -0.55100
O27         O  0.09839625  0.48704349  0.20980073    -0.56300
C28         C  0.05547635  0.47235466  0.31159516     0.76400
O29         O  0.06706989  0.42929046  0.18671384    -0.57400
C30         C  0.11140156  0.47655124  0.18587981     0.76300
C31         C  0.10126798  0.41843710  0.28919043     0.78700
Cd32       Cd  0.08132366  0.45405833  0.24281594     1.37500
O33         O  0.07548107  0.47739837  0.30893963    -0.56300
O34         O  0.10955791  0.43739770  0.28894070    -0.55100
C35         C  0.05331763  0.44274913  0.17147975     0.78700
O36         O  0.08354206  0.41619514  0.26847911    -0.57400
O37         O  0.04793848  0.46040672  0.28179864    -0.55900
O38         O  0.11202854  0.45620041  0.19255654    -0.55900
O39         O  0.05149748  0.46068824  0.19123753    -0.55100
O40         O  0.21639320  0.32491198  0.39822282    -0.56300
C41         C  0.17112664  0.28434261  0.32799705     0.76400
O42         O  0.16427871  0.29327312  0.46038927    -0.57400
C43         C  0.21497855  0.33412852  0.43485762     0.76300
C44         C  0.14895846  0.34716865  0.36827073     0.78700
Cd45       Cd  0.17774265  0.31373181  0.39649310     1.37500
O46         O  0.18779289  0.29675145  0.32849070    -0.56300
O47         O  0.16662892  0.34309729  0.34908121    -0.55100
C48         C  0.17814851  0.27803279  0.45539317     0.78700
O49         O  0.14450743  0.33599053  0.40189126    -0.57400
O50         O  0.15723154  0.28665801  0.35770175    -0.55900
O51         O  0.19604736  0.33572131  0.45051234    -0.55900
O52         O  0.19101284  0.27997341  0.42385161    -0.55100
O53         O  0.43458959  0.49469215  0.45935369    -0.56300
C54         C  0.47335626  0.54907721  0.02661928     0.76400
O55         O  0.47004301  0.54599531  0.40612863    -0.57400
C56         C  0.42579957  0.50022040  0.42350959     0.76300
C57         C  0.41576871  0.58021827  0.97045817     0.78700
Cd58       Cd  0.45159389  0.53088169  0.46982201     1.37500
O59         O  0.46333127  0.53209425  0.01369489    -0.56300
O60         O  0.41452918  0.56018055  0.98071270    -0.55100
C61         C  0.48482955  0.53148642  0.40633956     0.78700
O62         O  0.43694546  0.56788455  0.47324300    -0.57400
O63         O  0.47026265  0.56661379  0.00555174    -0.55900
O64         O  0.42677743  0.52029277  0.41371445    -0.55900
O65         O  0.48407317  0.51700675  0.43563979    -0.55100
O66         O  0.28860455  0.66247622  0.09195445    -0.56300
C67         C  0.34754246  0.69524536  0.54411325     0.76400
O68         O  0.34789352  0.68295804  0.15601798    -0.57400
C69         C  0.28926570  0.65089662  0.12620649     0.76300
C70         C  0.35461824  0.63905839  0.05089275     0.78700
Cd71       Cd  0.32753491  0.67090052  0.09115554     1.37500
O72         O  0.33103508  0.68273679  0.54715721    -0.56300
O73         O  0.33638614  0.64441339  0.03451689    -0.55100
C74         C  0.33475844  0.69852918  0.16317850     0.78700
O75         O  0.35944774  0.64735792  0.08727302    -0.57400
O76         O  0.36290107  0.69232112  0.57109100    -0.55900
O77         O  0.30810440  0.64654234  0.14076766    -0.55900
O78         O  0.31870206  0.70063338  0.13772439    -0.55100
O79         O  0.09767112  0.51158858  0.45083893    -0.56300
C80         C  0.04919074  0.54381835  0.36565078     0.76400
O81         O  0.05433436  0.55881275  0.49251228    -0.57400
C82         C  0.10504664  0.51806189  0.48721074     0.76300
C83         C  0.10561830  0.58014814  0.40521836     0.78700
Cd84       Cd  0.07876060  0.54602770  0.43599771     1.37500
O85         O  0.06507792  0.53046487  0.36763260    -0.56300
O86         O  0.10594602  0.56114832  0.38911429    -0.55100
C87         C  0.04477655  0.54037291  0.49560539     0.78700
O88         O  0.09317160  0.58317337  0.43735341    -0.57400
O89         O  0.04788897  0.55808020  0.39499801    -0.55900
O90         O  0.10316000  0.53820244  0.49543870    -0.55900
O91         O  0.05113705  0.52522259  0.47106493    -0.55100
O92         O  0.19981829  0.69946401  0.33312103    -0.56300
C93         C  0.21305617  0.65780510  0.22854589     0.76400
O94         O  0.14630659  0.66007518  0.28979548    -0.57400
C95         C  0.18357623  0.71119762  0.34305416     0.76300
C96         C  0.17458107  0.71267031  0.21086293     0.78700
Cd97       Cd  0.18016302  0.68042619  0.27583529     1.37500
O98         O  0.21717049  0.66729123  0.26413827    -0.56300
O99         O  0.19058797  0.71198982  0.23674463    -0.55100
C100        C  0.15498392  0.64801987  0.31878973     0.78700
O101        O  0.15962324  0.69845517  0.21591642    -0.57400
O102        O  0.19324607  0.65736917  0.21677189    -0.55900
O103        O  0.16580785  0.70774823  0.32321558    -0.55900
O104        O  0.17503196  0.65094480  0.32663611    -0.55100
O105        O  0.56787052  0.52860391  0.26945262    -0.56300
C106        C  0.60755915  0.53519181  0.14808079     0.76400
O107        O  0.55157982  0.57143495  0.16421862    -0.57400
C108        C  0.55203025  0.54091075  0.27963454     0.76300
C109        C  0.60842965  0.58243719  0.25313538     0.78700
Cd110      Cd  0.57922325  0.55358667  0.21057082     1.37500
O111        O  0.60061349  0.52372747  0.17969598    -0.56300
O112        O  0.60805354  0.56204824  0.26047342    -0.55100
C113        C  0.54371492  0.55326862  0.15142902     0.78700
O114        O  0.59436422  0.58998033  0.22650230    -0.57400
O115        O  0.60267904  0.55528146  0.14829692    -0.55900
O116        O  0.54994394  0.55886675  0.25949529    -0.55900
O117        O  0.55246826  0.53599430  0.16608054    -0.55100
O118        O  0.71686312  0.68965263  0.31520285    -0.56300
C119        C  0.74147663  0.64589120  0.40921834     0.76400
O120        O  0.71518614  0.69412943  0.42495913    -0.57400
C121        C  0.70107937  0.70301423  0.31637371     0.76300
C122        C  0.67349014  0.63606007  0.33896972     0.78700
Cd123      Cd  0.70327294  0.66692055  0.37548890     1.37500
O124        O  0.74199178  0.65780663  0.37547500    -0.56300
O125        O  0.69172362  0.63993802  0.32154656    -0.55100
C126        C  0.69814004  0.69469675  0.44753187     0.78700
O127        O  0.66977945  0.64540228  0.37466701    -0.57400
O128        O  0.72270366  0.64179050  0.42393976    -0.55900
O129        O  0.68605686  0.69872761  0.34285301    -0.55900
O130        O  0.68312164  0.68116587  0.43828294    -0.55100
O131        O  0.72948455  0.29107972  0.35224630    -0.56300
C132        C  0.75704467  0.33112550  0.25060110     0.76400
O133        O  0.69865770  0.29773597  0.22457541    -0.57400
C134        C  0.71172804  0.28033902  0.35300429     0.76300
C135        C  0.69304968  0.34455435  0.32655087     0.78700
Cd136      Cd  0.71909861  0.31187847  0.28746328     1.37500
O137        O  0.75852124  0.31853466  0.28334435    -0.56300
O138        O  0.71006168  0.33700531  0.34451531    -0.55100
C139        C  0.71166702  0.28182522  0.21940608     0.78700
O140        O  0.68888789  0.33792467  0.28846180    -0.57400
O141        O  0.73803987  0.33685898  0.23921404    -0.55900
O142        O  0.69790383  0.28414556  0.32335807    -0.55900
O143        O  0.72777512  0.28050134  0.24502849    -0.55100
O144        O  0.59139305  0.45666907  0.39705253    -0.56300
C145        C  0.62772211  0.45977915  0.51501517     0.76400
O146        O  0.58255593  0.41335700  0.50915510    -0.57400
C147        C  0.58087975  0.44136532  0.37865022     0.76300
C148        C  0.63552989  0.40200668  0.42074943     0.78700
Cd149      Cd  0.60527271  0.43226197  0.45480292     1.37500
O150        O  0.62289135  0.46652355  0.47712389    -0.56300
O151        O  0.63894504  0.42242004  0.41945347    -0.55100
C152        C  0.56810237  0.42820773  0.50841042     0.78700
O153        O  0.61865473  0.39544554  0.44050222    -0.57400
O154        O  0.62395258  0.43977969  0.52253354    -0.55900
O155        O  0.58346844  0.42220072  0.39328469    -0.55900
O156        O  0.57051614  0.44370406  0.48173471    -0.55100
O157        O  0.83242122  0.68034888  0.09398888    -0.56300
C158        C  0.80374689  0.64403782  0.98995807     0.76400
O159        O  0.86214077  0.67812466  0.96437006    -0.57400
C160        C  0.84956514  0.69197710  0.09566313     0.76300
C161        C  0.86819706  0.62437557  0.05366203     0.78700
Cd162      Cd  0.84299318  0.66138730  0.02668218     1.37500
O163        O  0.80381969  0.65416450  0.02571886    -0.56300
O164        O  0.85023099  0.62910977  0.07109689    -0.55100
C165        C  0.84835704  0.69353770  0.96080140     0.78700
O166        O  0.87431358  0.63654941  0.02259677    -0.57400
O167        O  0.82219006  0.64058643  0.97331394    -0.55900
O168        O  0.86384890  0.68834022  0.06731725    -0.55900
O169        O  0.83248106  0.69325957  0.98659861    -0.55100
O170        O  0.97284423  0.50373589  0.11963648    -0.56300
C171        C  0.93202007  0.49036228  0.21969364     0.76400
O172        O  0.96428669  0.54736951  0.23246630    -0.57400
C173        C  0.98098104  0.52023838  0.10060136     0.76300
C174        C  0.92044284  0.55576450  0.13212126     0.78700
Cd175      Cd  0.95093900  0.52575365  0.16985730     1.37500
O176        O  0.93749848  0.48754992  0.18059804    -0.56300
O177        O  0.91999320  0.53575552  0.12179573    -0.55100
C178        C  0.98312348  0.53893082  0.23214631     0.78700
O179        O  0.93355866  0.56111513  0.16201057    -0.57400
O180        O  0.93318305  0.50980189  0.23310782    -0.55900
O181        O  0.97397850  0.53880052  0.11144146    -0.55900
O182        O  0.98690118  0.52551705  0.20227433    -0.55100
O183        O  0.84173907  0.29075881  0.57726336    -0.56300
C184        C  0.83407401  0.32407090  0.15145220     0.76400
O185        O  0.88801810  0.28371678  0.18110267    -0.57400
C186        C  0.85845199  0.27897288  0.57067726     0.76300
C187        C  0.89797859  0.32875750  0.07278750     0.78700
Cd188      Cd  0.86945009  0.29919980  0.11614686     1.37500
O189        O  0.83166704  0.31209421  0.11837494    -0.56300
O190        O  0.87910782  0.32427345  0.05864052    -0.55100
C191        C  0.87377773  0.26875311  0.18557792     0.78700
O192        O  0.90375769  0.31981293  0.10827366    -0.57400
O193        O  0.85339503  0.32592100  0.16559382    -0.55900
O194        O  0.88543152  0.26875393  0.07759096    -0.55900
O195        O  0.85798178  0.26882587  0.15916490    -0.55100
O196        O  0.99308222  0.44430201  0.99488083    -0.56300
C197        C  0.94147215  0.43284369  0.36243373     0.76400
O198        O  0.99552053  0.43510083  0.40843154    -0.57400
C199        C  0.00591348  0.43010771  0.01080424     0.76300
C200        C  0.95366319  0.38811738  0.97755364     0.78700
Cd201      Cd  0.96455724  0.41914788  0.43874701     1.37500
O202        O  0.94093532  0.44299204  0.39811329    -0.56300
O203        O  0.95256647  0.40819426  0.98673302    -0.55100
C204        C  0.99420835  0.45355770  0.42648127     0.85100
O205        O  0.93901825  0.39090327  0.45487558    -0.57400
O206        O  0.95167459  0.41469248  0.36287592    -0.55900
O207        O  0.00724414  0.41207572  0.99121265    -0.55900
O208        O  0.97896470  0.45652013  0.45376417    -0.55100
O209        O  0.32225846  0.20761599  0.37295229    -0.56300
C210        C  0.29914084  0.16595968  0.27993480     0.76400
O211        O  0.35806359  0.19898450  0.24840236    -0.57400
C212        C  0.33831672  0.22064822  0.37497300     0.76300
C213        C  0.36417240  0.15561848  0.35585878     0.78700
Cd214      Cd  0.33717163  0.18664827  0.31300656     1.37500
O215        O  0.29823096  0.18034803  0.30913494    -0.56300
O216        O  0.34526602  0.16009437  0.36914020    -0.55100
C217        C  0.34532800  0.21501136  0.24159983     0.78700
O218        O  0.37032016  0.16482291  0.32110029    -0.57400
O219        O  0.31796821  0.15958499  0.26932472    -0.55900
O220        O  0.35402712  0.21702086  0.34979750    -0.55900
O221        O  0.32891399  0.21648909  0.26576023    -0.55100
O222        O  0.47075710  0.05829396  0.42523440    -0.56300
C223        C  0.43240390  0.03700520  0.53579579     0.76400
O224        O  0.47409485  0.08786292  0.55162131    -0.57400
C225        C  0.48373234  0.07448480  0.42275230     0.76300
C226        C  0.42038127  0.09903636  0.45662901     0.78700
Cd227      Cd  0.45330716  0.07149600  0.49095231     1.37500
O228        O  0.44214740  0.03360661  0.50027634    -0.56300
O229        O  0.42274363  0.07957233  0.44376795    -0.55100
C230        C  0.48742731  0.07190038  0.55265212     0.78700
O231        O  0.43243668  0.10537039  0.48780627    -0.57400
O232        O  0.43020997  0.05677029  0.54688397    -0.55900
O233        O  0.48159270  0.08950731  0.45037465    -0.55900
O234        O  0.48428844  0.05662767  0.52597749    -0.55100
O235        O  0.20091289  0.18851329  0.56758923    -0.56300
C236        C  0.22081255  0.16691713  0.18218124     0.76400
O237        O  0.16168650  0.19938112  0.19611907    -0.57400
C238        C  0.18494072  0.20168999  0.56806051     0.76300
C239        C  0.16384684  0.15418441  0.08407950     0.78700
Cd240      Cd  0.18525779  0.18668093  0.13592162     1.37500
O241        O  0.22335248  0.17786175  0.14762188    -0.56300
O242        O  0.18392206  0.15846830  0.08128739    -0.55100
C243        C  0.17216815  0.21726325  0.19967333     0.78700
O244        O  0.15333211  0.16440307  0.11285824    -0.57400
O245        O  0.20133957  0.16419222  0.19445068    -0.55900
O246        O  0.17124963  0.19885300  0.59802792    -0.55900
O247        O  0.18814482  0.22009161  0.17475266    -0.55100
O248        O  0.08188332  0.04391293  0.99852090    -0.56300
C249        C  0.11955198  0.01171017  0.40463272     0.76400
O250        O  0.07635941  0.06107688  0.38678306    -0.57400
C251        C  0.06820410  0.05948876  0.00198962     0.76300
C252        C  0.12261694  0.09163537  0.96908989     0.78700
Cd253      Cd  0.09281663  0.04264286  0.44974810     1.37500
O254        O  0.10858817  0.00596312  0.43755171    -0.56300
O255        O  0.12374086  0.07178601  0.98108714    -0.55100
C256        C  0.06134731  0.04684361  0.38316642     0.78700
O257        O  0.10856182  0.07912951  0.46139478    -0.57400
O258        O  0.11975717  0.03200427  0.39654922    -0.55900
O259        O  0.06853787  0.07453611  0.97351705    -0.55900
O260        O  0.06146030  0.03108771  0.40979710    -0.55100
O261        O  0.47819425  0.93041137  0.22389311    -0.56300
C262        C  0.43669421  0.94201314  0.11507158     0.76400
O263        O  0.48260133  0.89352433  0.10492935    -0.57400
C264        C  0.49132345  0.91489929  0.23249827     0.76300
C265        C  0.43077083  0.88300178  0.20612741     0.78700
Cd266      Cd  0.46105747  0.91081757  0.16406613     1.37500
O267        O  0.44606784  0.94715273  0.15037377    -0.56300
O268        O  0.43259067  0.90311318  0.21480275    -0.55100
C269        C  0.49559341  0.90979645  0.10382367     0.78700
O270        O  0.44251784  0.87564073  0.17573282    -0.57400
O271        O  0.43699782  0.92196586  0.10509112    -0.55900
O272        O  0.48900688  0.89732456  0.21151071    -0.55900
O273        O  0.49239304  0.92489771  0.13067413    -0.55100
O274        O  0.32677565  0.77977586  0.29674513    -0.56300
C275        C  0.31187112  0.82270370  0.39758468     0.76400
O276        O  0.36478604  0.78110958  0.41668643    -0.57400
C277        C  0.34279393  0.76726030  0.28914188     0.76300
C278        C  0.37432218  0.82903412  0.31212552     0.78700
Cd279      Cd  0.34569492  0.79913933  0.35482319     1.37500
O280        O  0.30824515  0.81204132  0.36318369    -0.56300
O281        O  0.35493106  0.82578020  0.29948048    -0.55100
C282        C  0.35106202  0.76551448  0.41824734     0.78700
O283        O  0.38038073  0.81904767  0.34632346    -0.57400
O284        O  0.33162677  0.82421556  0.40925096    -0.55900
O285        O  0.36021216  0.77067268  0.31022489    -0.55900
O286        O  0.33542763  0.76620337  0.39151894    -0.55100
O287        O  0.07457243  0.95395637  0.14975742    -0.56300
C288        C  0.12158232  0.95425107  0.26554826     0.76400
O289        O  0.07144116  0.91077905  0.25594640    -0.57400
C290        C  0.06109779  0.93851589  0.14210996     0.76300
C291        C  0.11814026  0.90414598  0.15437609     0.78700
Cd292      Cd  0.09369745  0.93215237  0.20649054     1.37500
O293        O  0.11318915  0.96428385  0.23321152    -0.56300
O294        O  0.11780039  0.92458830  0.14731711    -0.55100
C295        C  0.06091839  0.92736331  0.26901205     0.78700
O296        O  0.10920237  0.89719660  0.18883602    -0.57400
O297        O  0.11951223  0.93365072  0.26613902    -0.55900
O298        O  0.06340793  0.92105545  0.16374327    -0.55900
O299        O  0.06619598  0.94579082  0.25340239    -0.55100
O300        O  0.19417751  0.78950452  0.06660895    -0.56300
C301        C  0.21401765  0.82078881  0.95386977     0.76400
O302        O  0.15684807  0.78627165  0.94499318    -0.57400
C303        C  0.17694926  0.77943962  0.07762193     0.76300
C304        C  0.15511835  0.84272689  0.03498942     0.78700
Cd305      Cd  0.17761159  0.80608230  0.00213868     1.37500
O306        O  0.21577022  0.81653151  0.99397622    -0.56300
O307        O  0.17518232  0.83941182  0.04154538    -0.55100
C308        C  0.16888932  0.76940049  0.94866096     0.78700
O309        O  0.14535550  0.82979146  0.00926823    -0.57400
O310        O  0.19510728  0.82034667  0.93720934    -0.55900
O311        O  0.16004099  0.78304791  0.05504701    -0.55900
O312        O  0.18404908  0.77010903  0.97653541    -0.55100
O313        O  0.73663810  0.16366746  0.03317743    -0.56300
C314        C  0.70155311  0.20998770  0.09982719     0.76400
O315        O  0.68020340  0.19275646  0.97090757    -0.57400
C316        C  0.73455217  0.15217296  0.99937218     0.76300
C317        C  0.66918106  0.14713544  0.07388751     0.78700
Cd318      Cd  0.69913233  0.17674347  0.03502639     1.37500
O319        O  0.71670437  0.19613793  0.09520113    -0.56300
O320        O  0.68895239  0.14816021  0.08553917    -0.55100
C321        C  0.69545685  0.20642671  0.96436767     0.78700
O322        O  0.66341693  0.15902773  0.04203078    -0.57400
O323        O  0.68480024  0.20749823  0.07630755    -0.55900
O324        O  0.71539332  0.15070534  0.98414029    -0.55900
O325        O  0.71164833  0.20565496  0.98977000    -0.55100
O326        O  0.59536755  0.03207150  0.23971009    -0.56300
C327        C  0.54849627  0.06644907  0.16487751     0.76400
O328        O  0.56536429  0.09099192  0.28656943    -0.57400
C329        C  0.60783328  0.03681383  0.27126807     0.76300
C330        C  0.61089058  0.09565596  0.17937926     0.78700
Cd331      Cd  0.58204654  0.06930663  0.22792408     1.37500
O332        O  0.56108438  0.05033510  0.17209911    -0.56300
O333        O  0.60542458  0.07662200  0.16775850    -0.55100
C334        C  0.55137792  0.07612678  0.29429723     0.78700
O335        O  0.60321618  0.10265191  0.21478878    -0.57400
O336        O  0.55217784  0.08380304  0.18577752    -0.55900
O337        O  0.60973226  0.05692539  0.27989258    -0.55900
O338        O  0.55264476  0.05869837  0.27279813    -0.55100
O339        O  0.74175969  0.81356590  0.12781478    -0.56300
C340        C  0.69721885  0.77042219  0.55638430     0.76400
O341        O  0.68536638  0.79287754  0.19703011    -0.57400
C342        C  0.74152242  0.82634936  0.16012050     0.76300
C343        C  0.68056606  0.83949409  0.08340584     0.78700
Cd344      Cd  0.70277341  0.80594398  0.12927387     1.37500
O345        O  0.71389555  0.78263064  0.55703916    -0.56300
O346        O  0.69909075  0.83243063  0.07244363    -0.55100
C347        C  0.69965313  0.77796464  0.20220816     0.78700
O348        O  0.67268327  0.83188043  0.11844233    -0.57400
O349        O  0.68144345  0.77596191  0.57993269    -0.55900
O350        O  0.72294328  0.83125850  0.17485815    -0.55900
O351        O  0.71469567  0.77700141  0.17458878    -0.55100
O352        O  0.60355064  0.96670677  0.41791580    -0.56300
C353        C  0.56984889  0.92269462  0.99197520     0.76400
O354        O  0.57579060  0.90799193  0.36445111    -0.57400
C355        C  0.61389576  0.96392019  0.38288894     0.76300
C356        C  0.63210999  0.89950713  0.97291247     0.78700
Cd357      Cd  0.59234718  0.92838389  0.42520372     1.37500
O358        O  0.58100067  0.94023873  0.98953247    -0.56300
O359        O  0.62931954  0.91934936  0.98287476    -0.55100
C360        C  0.56119773  0.92244472  0.35823376     0.78700
O361        O  0.61365139  0.89476502  0.43232535    -0.57400
O362        O  0.57448545  0.90767954  0.96563193    -0.55900
O363        O  0.61615121  0.94430438  0.37094508    -0.55900
O364        O  0.56217922  0.93933046  0.38149369    -0.55100
O365        O  0.94263908  0.94927912  0.48548648    -0.56300
C366        C  0.99322068  0.92204322  0.39878651     0.76400
O367        O  0.98878714  0.90139424  0.52504518    -0.57400
C368        C  0.93451116  0.97010167  0.99426346     0.76300
C369        C  0.93812825  0.88545397  0.42727192     0.78700
Cd370      Cd  0.96430581  0.91698867  0.46905309     1.37500
O371        O  0.98163713  0.93825088  0.41021289    -0.56300
O372        O  0.93761879  0.90549759  0.41658402    -0.55100
C373        C  0.99274765  0.93812519  0.01136121     0.78700
O374        O  0.94985516  0.88013951  0.45982284    -0.57400
O375        O  0.98999328  0.90415721  0.41846750    -0.55900
O376        O  0.93626304  0.95031985  0.00588981    -0.55900
O377        O  0.99323882  0.93525005  0.50592655    -0.55100
O378        O  0.81942969  0.80875282  0.28388899    -0.56300
C379        C  0.85834566  0.76320076  0.35308004     0.76400
O380        O  0.87278300  0.77610529  0.22270813    -0.57400
C381        C  0.82160524  0.81994310  0.24942674     0.76300
C382        C  0.88588570  0.82477979  0.32728555     0.78700
Cd383      Cd  0.85667568  0.79492729  0.28594821     1.37500
O384        O  0.84227516  0.77620967  0.34989184    -0.56300
O385        O  0.86676141  0.82109388  0.34044057    -0.55100
C386        C  0.85752502  0.76198064  0.22095261     0.78700
O387        O  0.89149307  0.81544274  0.29239241    -0.57400
O388        O  0.87340739  0.76543795  0.32565249    -0.55900
O389        O  0.84064073  0.82077924  0.23388526    -0.55900
O390        O  0.84227535  0.76393441  0.24795223    -0.55100
O391        O  0.94852252  0.02407266  0.16251001    -0.56300
C392        C  0.99434479  0.05219730  0.25231603     0.76400
O393        O  0.98515377  0.07851772  0.12963888    -0.57400
C394        C  0.93928978  0.03206794  0.12898904     0.76300
C395        C  0.93569516  0.08693759  0.23293377     0.78700
Cd396      Cd  0.96381846  0.05916767  0.18571705     1.37500
O397        O  0.97945043  0.03807441  0.24572537    -0.56300
O398        O  0.93615581  0.06644657  0.23894763    -0.55100
C399        C  0.99783607  0.06222895  0.12496233     0.78700
O400        O  0.94752801  0.09468647  0.20285916    -0.57400
O401        O  0.99419765  0.06935163  0.22922249    -0.55900
O402        O  0.93926303  0.05269860  0.12568519    -0.55900
O403        O  0.99453978  0.04569863  0.14876777    -0.55100
O404        O  0.82056011  0.16635842  0.39010724    -0.56300
C405        C  0.86642195  0.20412561  0.32097285     0.76400
O406        O  0.87478130  0.19084460  0.45261849    -0.57400
C407        C  0.82128105  0.15552875  0.42531326     0.76300
C408        C  0.88403734  0.14088224  0.34663691     0.78700
Cd409      Cd  0.85907852  0.17363352  0.38768664     1.37500
O410        O  0.84868664  0.19338925  0.32274135    -0.56300
O411        O  0.86506940  0.14616529  0.33409006    -0.55100
C412        C  0.86061236  0.20608665  0.45183610     0.78700
O413        O  0.89096274  0.14945594  0.38163882    -0.57400
O414        O  0.88057484  0.20055082  0.35021510    -0.55900
O415        O  0.84004974  0.15049733  0.43964163    -0.55900
O416        O  0.84663993  0.20588534  0.42158696    -0.55100
C417        C  0.89763629  0.12624048  0.31973427    -0.03800
C418        C  0.91971292  0.13153415  0.31172890    -0.00900
C419        C  0.93200393  0.11896289  0.28259434     0.04100
C420        C  0.92235217  0.10105449  0.26109032    -0.03800
C421        C  0.90033017  0.09577689  0.26889384    -0.00900
C422        C  0.88799793  0.10833043  0.29792981     0.04100
C423        C  0.92961307  0.15056176  0.33170913     0.38700
C424        C  0.89011276  0.07778457  0.24596553     0.38700
C425        C  0.86534543  0.10266642  0.30532191     0.37100
C426        C  0.95479411  0.12417672  0.27557669     0.37100
N427        N  0.84725221  0.09821064  0.31097181    -0.37700
N428        N  0.97296828  0.12829302  0.26995713    -0.37700
N429        N  0.88197472  0.06346975  0.22759585    -0.37100
N430        N  0.93752683  0.16577585  0.34743925    -0.37100
C431        C  0.92698119  0.98716722  0.02547948    -0.03800
C432        C  0.92976835  0.00960386  0.01589320    -0.00900
C433        C  0.93211711  0.02487274  0.04966850     0.04100
C434        C  0.93076508  0.01788757  0.09351457    -0.03800
C435        C  0.92361219  0.99640455  0.10239952    -0.00900
C436        C  0.92137024  0.98116725  0.06850272     0.04100
C437        C  0.93059491  0.01718148  0.97133199     0.38700
C438        C  0.91877977  0.98979426  0.14656934     0.38700
C439        C  0.91343739  0.95937718  0.07827362     0.37100
C440        C  0.93744308  0.04734717  0.03879335     0.37100
N441        N  0.90693753  0.94203007  0.08619495    -0.37700
N442        N  0.94170155  0.06527314  0.02993931    -0.37700
N443        N  0.91488605  0.98453373  0.18170214    -0.37100
N444        N  0.91412317  0.98999165  0.46288125    -0.37100
C445        C  0.92584231  0.86903306  0.40186810    -0.03800
C446        C  0.92685471  0.86936745  0.35608854    -0.00900
C447        C  0.91404496  0.85478028  0.33148776     0.04100
C448        C  0.90072584  0.83921110  0.35250764    -0.03800
C449        C  0.90087490  0.83800050  0.39840816    -0.00900
C450        C  0.91302337  0.85313539  0.42293297     0.04100
C451        C  0.94158944  0.88432426  0.33420941     0.38700
C452        C  0.88898924  0.82080735  0.42069634     0.38700
C453        C  0.91163181  0.85285211  0.46986326     0.37100
C454        C  0.91398790  0.85645777  0.28460459     0.37100
N455        N  0.89959342  0.88167152  0.99664404    -0.37700
N456        N  0.91390227  0.85789280  0.24721170    -0.37700
N457        N  0.87966304  0.80705072  0.43861051    -0.37100
N458        N  0.95348581  0.89614102  0.31693044    -0.37100
C459        C  0.76212930  0.83324870  0.18204679    -0.03800
C460        C  0.76289987  0.83565226  0.22764855    -0.00900
C461        C  0.78295391  0.83376629  0.24993583     0.04100
C462        C  0.80234500  0.82981286  0.22680960    -0.03800
C463        C  0.80197355  0.83223504  0.18108738    -0.00900
C464        C  0.78186164  0.83377243  0.15882340     0.04100
C465        C  0.74311518  0.83881132  0.25226505     0.38700
C466        C  0.82198915  0.83215892  0.15640211     0.38700
C467        C  0.78146913  0.83553397  0.11192227     0.37100
C468        C  0.78346759  0.83543324  0.29681158     0.37100
N469        N  0.78116053  0.83703269  0.07453735    -0.37700
N470        N  0.78380195  0.83679669  0.33417987    -0.37700
N471        N  0.83789404  0.83230867  0.13649564    -0.37100
N472        N  0.72740585  0.84148450  0.27203696    -0.37100
C473        C  0.64529817  0.88484884  0.00107368    -0.03800
C474        C  0.65135103  0.87056587  0.47066744    -0.00900
C475        C  0.66404571  0.85580407  0.49536431     0.04100
C476        C  0.66861608  0.85540549  0.05539468    -0.03800
C477        C  0.65483128  0.87131164  0.07368479    -0.00900
C478        C  0.64309970  0.88582646  0.04666732     0.04100
C479        C  0.65197470  0.86965157  0.42370711     0.38700
C480        C  0.65285514  0.87312241  0.12035317     0.38700
C481        C  0.62815878  0.90128655  0.06603458     0.37100
C482        C  0.67723086  0.83976407  0.47311949     0.37100
N483        N  0.61625371  0.91361794  0.08139293    -0.37700
N484        N  0.68773657  0.82701535  0.45529507    -0.37700
N485        N  0.65118097  0.87468133  0.15751998    -0.37100
N486        N  0.65235470  0.86873868  0.38628841    -0.37100
C487        C  0.61786035  0.01941650  0.29896223    -0.03800
C488        C  0.62030478  0.02246060  0.34417751    -0.00900
C489        C  0.62159926  0.00416543  0.37214930     0.04100
C490        C  0.62082426  0.98277037  0.35503798    -0.03800
C491        C  0.62316535  0.98014886  0.30961574    -0.00900
C492        C  0.62159481  0.99845640  0.28177625     0.04100
C493        C  0.62046006  0.04423178  0.36249494     0.38700
C494        C  0.62595641  0.95868549  0.29074362     0.38700
C495        C  0.62351590  0.99566760  0.23530183     0.37100
C496        C  0.62309667  0.00749790  0.41857909     0.37100
N497        N  0.62517881  0.99343698  0.19827940    -0.37700
N498        N  0.62427547  0.01027210  0.45556804    -0.37700
N499        N  0.62823722  0.94162811  0.27545391    -0.37100
N500        N  0.62084498  0.06156681  0.37724467    -0.37100
C501        C  0.80105541  0.15100139  0.45021177    -0.03800
C502        C  0.80126414  0.15192099  0.49607017    -0.00900
C503        C  0.78155067  0.15376346  0.51896611     0.04100
C504        C  0.76147137  0.15568411  0.49630976    -0.03800
C505        C  0.76120137  0.15232426  0.45082419    -0.00900
C506        C  0.78087229  0.14955489  0.42819842     0.04100
C507        C  0.82169304  0.15285008  0.52003859     0.38700
C508        C  0.74100751  0.15308769  0.42616464     0.38700
C509        C  0.78034177  0.14590283  0.38174866     0.37100
C510        C  0.77475116  0.14148554  0.04679211     0.37100
N511        N  0.78004452  0.14302736  0.34473487    -0.37700
N512        N  0.77542642  0.14224311  0.08422513    -0.37700
N513        N  0.72508194  0.15369210  0.40591437    -0.37100
N514        N  0.83787819  0.15374288  0.53942401    -0.37100
C515        C  0.65351846  0.13336930  0.09804752    -0.03800
C516        C  0.65935334  0.11196544  0.11107392    -0.00900
C517        C  0.64524819  0.09960413  0.13733172     0.04100
C518        C  0.62567477  0.10887686  0.15230964    -0.03800
C519        C  0.61987989  0.13030333  0.13968632    -0.00900
C520        C  0.63349486  0.14232243  0.11172564     0.04100
C521        C  0.67983197  0.10250598  0.09739204     0.38700
C522        C  0.59982467  0.13996640  0.15513762     0.38700
C523        C  0.62714337  0.16419013  0.09829277     0.37100
C524        C  0.65122559  0.07751055  0.15009063     0.37100
N525        N  0.62198641  0.18156062  0.08734761    -0.37700
N526        N  0.65580718  0.05986612  0.16028799    -0.37700
N527        N  0.58393689  0.14777006  0.16771685    -0.37100
N528        N  0.69619610  0.09489654  0.08688524    -0.37100
C529        C  0.04326417  0.92557672  0.30127525    -0.03800
C530        C  0.04537430  0.91104424  0.33666555    -0.00900
C531        C  0.02922639  0.91027381  0.36869450     0.04100
C532        C  0.01033281  0.92355250  0.36503049    -0.03800
C533        C  0.00805326  0.93782796  0.32911096    -0.00900
C534        C  0.02453885  0.93899904  0.29761598     0.04100
C535        C  0.06454866  0.89730318  0.34123669     0.38700
C536        C  0.98851116  0.95089110  0.32348422     0.38700
C537        C  0.02179921  0.95363643  0.26072795     0.37100
C538        C  0.03274843  0.89631069  0.40634626     0.37100
N539        N  0.01963064  0.96525696  0.23128391    -0.37700
N540        N  0.03561069  0.88520075  0.43632044    -0.37700
N541        N  0.97299502  0.96136173  0.31855260    -0.37100
N542        N  0.07971705  0.88622030  0.34491420    -0.37100
C543        C  0.01018950  0.93872621  0.04492538    -0.03800
C544        C  0.03089671  0.94775887  0.03536597    -0.00900
C545        C  0.04733542  0.94854500  0.06756213     0.04100
C546        C  0.04329159  0.94011161  0.10941782    -0.03800
C547        C  0.02252054  0.93120009  0.11892907    -0.00900
C548        C  0.00601292  0.93080203  0.08705693     0.04100
C549        C  0.03571621  0.95538465  0.99185513     0.38700
C550        C  0.01793494  0.92220978  0.16154565     0.38700
C551        C  0.98446632  0.92280519  0.09823647     0.37100
C552        C  0.06882704  0.95672608  0.05665406     0.37100
N553        N  0.96727556  0.91650404  0.10714473    -0.37700
N554        N  0.08598788  0.96314632  0.04784075    -0.37700
N555        N  0.01411829  0.91469465  0.19513514    -0.37100
N556        N  0.04153022  0.94272879  0.46353959    -0.37100
C557        C  0.14380894  0.86003498  0.05941171    -0.03800
C558        C  0.15470933  0.87991171  0.06830857    -0.00900
C559        C  0.14653712  0.89427132  0.09969577     0.04100
C560        C  0.12729063  0.88893566  0.12222571    -0.03800
C561        C  0.11569140  0.86968726  0.11148117    -0.00900
C562        C  0.12383717  0.85537340  0.08000468     0.04100
C563        C  0.17433370  0.88573144  0.04491119     0.38700
C564        C  0.09509098  0.86467211  0.13223599     0.38700
C565        C  0.11189956  0.83549648  0.07017471     0.37100
C566        C  0.15846220  0.91412532  0.10980677     0.37100
N567        N  0.10216883  0.81977661  0.06236622    -0.37700
N568        N  0.16799609  0.92994504  0.11778734    -0.37700
N569        N  0.07871279  0.86069643  0.14889541    -0.37100
N570        N  0.18995173  0.89045021  0.02626037    -0.37100
C571        C  0.29365565  0.83100613  0.42479711    -0.03800
C572        C  0.29593985  0.83175825  0.47053265    -0.00900
C573        C  0.27730627  0.83226879  0.49696559     0.04100
C574        C  0.23348038  0.82287900  0.92660065    -0.03800
C575        C  0.25427660  0.83597576  0.43277289    -0.00900
C576        C  0.27286137  0.83485238  0.40620499     0.04100
C577        C  0.31723020  0.83047583  0.49107590     0.38700
C578        C  0.23933028  0.86106710  0.94990349     0.38700
C579        C  0.27031421  0.83670185  0.35952721     0.37100
C580        C  0.27984808  0.83193049  0.54375699     0.37100
N581        N  0.26817203  0.83800104  0.32232494    -0.37700
N582        N  0.21610890  0.76916804  0.90128155    -0.37700
N583        N  0.23368176  0.87646016  0.96825226    -0.37100
N584        N  0.33413241  0.82956598  0.50781401    -0.37100
C585        C  0.55156558  0.91965015  0.02271275    -0.03800
C586        C  0.54743106  0.89870323  0.04086193    -0.00900
C587        C  0.52854130  0.89493480  0.06562658     0.04100
C588        C  0.51376632  0.91213298  0.07281645    -0.03800
C589        C  0.51772347  0.93294083  0.05412809    -0.00900
C590        C  0.53677482  0.93685070  0.03022856     0.04100
C591        C  0.56307157  0.88115416  0.03553570     0.38700
C592        C  0.50163613  0.95023317  0.05801089     0.38700
C593        C  0.54052167  0.95846487  0.01207329     0.37100
C594        C  0.52475232  0.87352816  0.08460694     0.37100
N595        N  0.54330399  0.97576229  0.99776662    -0.37700
N596        N  0.52190138  0.85638674  0.09959296    -0.37700
N597        N  0.48867896  0.96384006  0.06115256    -0.37100
N598        N  0.57562689  0.86726206  0.03120186    -0.37100
C599        C  0.50918309  0.91717099  0.26449644    -0.03800
C600        C  0.50534943  0.92669954  0.30512328    -0.00900
C601        C  0.52215159  0.92744889  0.33627825     0.04100
C602        C  0.54335391  0.91999829  0.32607607    -0.03800
C603        C  0.54742107  0.91135730  0.28466678    -0.00900
C604        C  0.53033091  0.90970103  0.25417407     0.04100
C605        C  0.48413759  0.93575951  0.31513985     0.38700
C606        C  0.56935626  0.90523688  0.27239948     0.38700
C607        C  0.53491704  0.90152747  0.21115489     0.37100
C608        C  0.51720591  0.93521991  0.37940609     0.37100
N609        N  0.53864184  0.89511449  0.17683397    -0.37700
N610        N  0.51302825  0.94131990  0.41372956    -0.37700
N611        N  0.58681654  0.90047941  0.26221251    -0.37100
N612        N  0.46738264  0.94332858  0.32310209    -0.37100
C613        C  0.41606076  0.86885029  0.23190926    -0.03800
C614        C  0.39497499  0.87622125  0.24269453    -0.00900
C615        C  0.38140830  0.86329770  0.26915895     0.04100
C616        C  0.38917103  0.84338918  0.28690477    -0.03800
C617        C  0.41068468  0.83660643  0.27793953    -0.00900
C618        C  0.42380252  0.84891746  0.24944194     0.04100
C619        C  0.38713090  0.89715813  0.22662410     0.38700
C620        C  0.41947354  0.81696551  0.29795545     0.38700
C621        C  0.44560999  0.84139381  0.23948941     0.37100
C622        C  0.35967303  0.87097154  0.27927814     0.37100
N623        N  0.46296134  0.83536801  0.23137986    -0.37700
N624        N  0.34234879  0.87713446  0.28721338    -0.37700
N625        N  0.42668181  0.80150984  0.31437399    -0.37100
N626        N  0.38096722  0.91396129  0.21429212    -0.37100
C627        C  0.04424062  0.04820716  0.34954663    -0.03800
C628        C  0.02217001  0.04498659  0.36096506    -0.00900
C629        C  0.00582143  0.04543092  0.32884210     0.04100
C630        C  0.01146560  0.04918452  0.28532506    -0.03800
C631        C  0.03354352  0.05185248  0.27369715    -0.00900
C632        C  0.04990710  0.05148308  0.30580225     0.04100
C633        C  0.01605791  0.04218117  0.40598603     0.38700
C634        C  0.03952019  0.05422779  0.22847165     0.38700
C635        C  0.07259648  0.05374824  0.29355811     0.37100
C636        C  0.98311968  0.04293629  0.34082211     0.37100
N637        N  0.09067145  0.05554258  0.28371395    -0.37700
N638        N  0.96501611  0.04096064  0.35031642    -0.37700
N639        N  0.04437118  0.05597366  0.19246257    -0.37100
N640        N  0.01097499  0.04004907  0.44177547    -0.37100
C641        C  0.05157541  0.05980111  0.03632838    -0.03800
C642        C  0.04719272  0.07928503  0.05897710    -0.00900
C643        C  0.02957075  0.08024007  0.08791981     0.04100
C644        C  0.01586393  0.06189416  0.09338360    -0.03800
C645        C  0.02042228  0.04233621  0.07085928    -0.00900
C646        C  0.03855563  0.04116259  0.04345866     0.04100
C647        C  0.06139285  0.09808998  0.05405705     0.38700
C648        C  0.00604191  0.02352356  0.07443464     0.38700
C649        C  0.04334771  0.02091582  0.02134045     0.37100
C650        C  0.02626371  0.09974194  0.11352247     0.37100
N651        N  0.04737309  0.00490999  0.00341685    -0.37700
N652        N  0.02377882  0.11525094  0.13415258    -0.37700
N653        N  0.99460160  0.00853060  0.07715625    -0.37100
N654        N  0.07270465  0.11312900  0.05064572    -0.37100
C655        C  0.13078801  0.96637745  0.30334227    -0.03800
C656        C  0.12802695  0.95814974  0.34600358    -0.00900
C657        C  0.12707926  0.97274252  0.38123721     0.04100
C658        C  0.12941128  0.99552453  0.37404269    -0.03800
C659        C  0.13764334  0.00259764  0.33337497    -0.00900
C660        C  0.13801100  0.98808737  0.29804752     0.04100
C661        C  0.12474515  0.93496224  0.35379212     0.38700
C662        C  0.14485319  0.02493865  0.32676774     0.38700
C663        C  0.14509630  0.99569695  0.25581889     0.37100
C664        C  0.12275784  0.96419466  0.42428290     0.37100
N665        N  0.15074284  0.00172464  0.22211466    -0.37700
N666        N  0.11930062  0.95718203  0.45845184    -0.37700
N667        N  0.15066997  0.04272658  0.32119237    -0.37100
N668        N  0.12228250  0.91647859  0.36030840    -0.37100
C669        C  0.15339692  0.13833883  0.05402361    -0.03800
C670        C  0.16420725  0.11870798  0.04332958    -0.00900
C671        C  0.15008457  0.08356720  0.54360084     0.04100
C672        C  0.13433932  0.10879089  0.99409180    -0.03800
C673        C  0.12417807  0.12901408  0.00278439    -0.00900
C674        C  0.13348676  0.14354035  0.03308589     0.04100
C675        C  0.18186507  0.09230979  0.59000047     0.38700
C676        C  0.10395676  0.13492115  0.98108477     0.38700
C677        C  0.12276119  0.16416324  0.04158163     0.37100
C678        C  0.16002868  0.06261155  0.53434542     0.37100
N679        N  0.11403142  0.18054322  0.04812559    -0.37700
N680        N  0.16787646  0.04587182  0.52698254    -0.37700
N681        N  0.08790670  0.13971497  0.96358942    -0.37100
N682        N  0.19856998  0.08749380  0.60479200    -0.37100
C683        C  0.53390332  0.07841764  0.32645699    -0.03800
C684        C  0.53894617  0.08289573  0.37007255    -0.00900
C685        C  0.52252681  0.08147973  0.40164545     0.04100
C686        C  0.50093143  0.07585811  0.38956119    -0.03800
C687        C  0.49593423  0.07151842  0.34583420    -0.00900
C688        C  0.51228844  0.07310106  0.31432554     0.04100
C689        C  0.56126235  0.08753416  0.38293842     0.38700
C690        C  0.47403754  0.06509830  0.33317615     0.38700
C691        C  0.50677345  0.06934869  0.26917463     0.37100
C692        C  0.52840771  0.08382394  0.44696311     0.37100
N693        N  0.50226129  0.06640838  0.23323686    -0.37700
N694        N  0.53346894  0.08533658  0.48297631    -0.37700
N695        N  0.45665346  0.05970358  0.32313506    -0.37100
N696        N  0.57904039  0.09118389  0.39335118    -0.37100
C697        C  0.49344232  0.06291049  0.07827387    -0.03800
C698        C  0.49773160  0.04563638  0.10763924    -0.00900
C699        C  0.51597630  0.04661514  0.13538734     0.04100
C700        C  0.52983341  0.06507172  0.13446038    -0.03800
C701        C  0.52510882  0.08267629  0.10598947    -0.00900
C702        C  0.52057802  0.08877503  0.58668453     0.04100
C703        C  0.48321548  0.02688533  0.10962116     0.38700
C704        C  0.53956850  0.10143846  0.10365144     0.38700
C705        C  0.51552693  0.10935075  0.56520882     0.37100
C706        C  0.52015639  0.02877030  0.16552083     0.37100
N707        N  0.51153338  0.12572192  0.54795844    -0.37700
N708        N  0.52352503  0.01456631  0.18956080    -0.37700
N709        N  0.56842958  0.11842697  0.60840183    -0.37100
N710        N  0.47165350  0.01195169  0.11137459    -0.37100
C711        C  0.42749576  0.95898590  0.08537559    -0.03800
C712        C  0.41950677  0.97881318  0.10213846    -0.00900
C713        C  0.41709019  0.99725480  0.07483944     0.04100
C714        C  0.42273930  0.99592349  0.03041971    -0.03800
C715        C  0.42658629  0.97503755  0.01254521    -0.00900
C716        C  0.42931116  0.95671091  0.03992038     0.04100
C717        C  0.41412805  0.98036045  0.14772167     0.38700
C718        C  0.42860950  0.97238221  0.96604188     0.38700
C719        C  0.43561371  0.93601427  0.02102550     0.37100
C720        C  0.40977381  0.01765887  0.09346070     0.37100
N721        N  0.44064230  0.91957150  0.00576524    -0.37700
N722        N  0.40386370  0.03382411  0.10863220    -0.37700
N723        N  0.41427743  0.99286958  0.46519313    -0.37100
N724        N  0.40976941  0.98152953  0.18404682    -0.37100
C725        C  0.27914634  0.15876145  0.25667346    -0.03800
C726        C  0.25885687  0.15865300  0.27803935    -0.00900
C727        C  0.23929819  0.15849753  0.25377588     0.04100
C728        C  0.23998601  0.15920631  0.20793390    -0.03800
C729        C  0.26013517  0.15578409  0.18710893    -0.00900
C730        C  0.27966401  0.15560517  0.21131527     0.04100
C731        C  0.25804189  0.15971314  0.32498461     0.38700
C732        C  0.26095335  0.15304540  0.14046944     0.38700
C733        C  0.30025059  0.15419352  0.18862184     0.37100
C734        C  0.21868253  0.15866329  0.27640775     0.37100
N735        N  0.31663769  0.15313992  0.17045735    -0.37700
N736        N  0.20234788  0.15851342  0.29487335    -0.37700
N737        N  0.26173031  0.15087318  0.10330493    -0.37100
N738        N  0.25737841  0.16074380  0.36237305    -0.37100
C739        C  0.40530990  0.11405438  0.43374945    -0.03800
C740        C  0.38381126  0.10745680  0.42357282    -0.00900
C741        C  0.37054423  0.12074907  0.39690852     0.04100
C742        C  0.37857275  0.14087490  0.38099466    -0.03800
C743        C  0.39997252  0.14756352  0.39157368    -0.00900
C744        C  0.41328715  0.13420140  0.41784556     0.04100
C745        C  0.37509289  0.08730156  0.44143805     0.38700
C746        C  0.40830391  0.16836174  0.37598894     0.38700
C747        C  0.43554169  0.14087266  0.42710503     0.37100
C748        C  0.34894875  0.11329815  0.38432386     0.37100
N749        N  0.45329236  0.14611924  0.43454012    -0.37700
N750        N  0.33178513  0.10740163  0.37386606    -0.37700
N751        N  0.41506575  0.18487759  0.36348308    -0.37100
N752        N  0.36794678  0.07134740  0.45584693    -0.37100
C753        C  0.86026993  0.22395678  0.48374664    -0.03800
C754        C  0.84029933  0.23058156  0.50201031    -0.00900
C755        C  0.83948742  0.24905180  0.52898243     0.04100
C756        C  0.85874157  0.26098724  0.53834774    -0.03800
C757        C  0.87870045  0.25419526  0.51979386    -0.00900
C758        C  0.87940784  0.23580567  0.49269176     0.04100
C759        C  0.82057942  0.21798558  0.49417824     0.38700
C760        C  0.89869718  0.26623960  0.52731027     0.38700
C761        C  0.89976310  0.22967464  0.47239533     0.37100
C762        C  0.81889631  0.25498944  0.54851350     0.37100
N763        N  0.91594559  0.22484731  0.45603835    -0.37700
N764        N  0.80249212  0.25968751  0.56414165    -0.37700
N765        N  0.91497483  0.27539047  0.53268021    -0.37100
N766        N  0.80481806  0.20802668  0.48808652    -0.37100
C767        C  0.87492991  0.25172154  0.21977998    -0.03800
C768        C  0.86915508  0.22991486  0.20957423    -0.00900
C769        C  0.86669124  0.21427882  0.24272252     0.04100
C770        C  0.87045876  0.22017212  0.28615338    -0.03800
C771        C  0.87786147  0.24144237  0.29616851    -0.00900
C772        C  0.87982970  0.25728391  0.26308585     0.04100
C773        C  0.86618150  0.22328332  0.16485173     0.38700
C774        C  0.88253190  0.24736217  0.34073805     0.38700
C775        C  0.88565613  0.27955106  0.27414316     0.37100
C776        C  0.86079997  0.19192951  0.23202926     0.37100
N777        N  0.89024308  0.29730596  0.28316359    -0.37700
N778        N  0.85615331  0.17409670  0.22371142    -0.37700
N779        N  0.88634383  0.25206686  0.37623841    -0.37100
N780        N  0.86390662  0.21768946  0.12937802    -0.37100
C781        C  0.91243859  0.34376263  0.04842701    -0.03800
C782        C  0.90399562  0.36348296  0.03125061    -0.00900
C783        C  0.91722671  0.37720394  0.00587347     0.04100
C784        C  0.93942434  0.37210278  0.99977557    -0.03800
C785        C  0.94795994  0.35244371  0.01706990    -0.00900
C786        C  0.93433022  0.33802848  0.04033798     0.04100
C787        C  0.88187385  0.37014851  0.04086722     0.38700
C788        C  0.97089573  0.34736282  0.01238041     0.38700
C789        C  0.94260287  0.31691208  0.05430664     0.37100
C790        C  0.90773863  0.39623973  0.98470166     0.37100
N791        N  0.94910848  0.29996175  0.06499617    -0.37700
N792        N  0.90023647  0.41129789  0.96735857    -0.37700
N793        N  0.98921752  0.34333817  0.00898020    -0.37100
N794        N  0.86431068  0.37560300  0.04876815    -0.37100
C795        C  0.93214015  0.44311720  0.32200189    -0.03800
C796        C  0.91837170  0.46164643  0.32510309    -0.00900
C797        C  0.91616286  0.47624646  0.28975143     0.04100
C798        C  0.92681231  0.47195626  0.25023826    -0.03800
C799        C  0.93601252  0.45099781  0.24435227    -0.00900
C800        C  0.93929071  0.43688953  0.28030772     0.04100
C801        C  0.90685582  0.46616206  0.36495574     0.38700
C802        C  0.94278485  0.44402987  0.20178888     0.38700
C803        C  0.95105536  0.41662478  0.27420336     0.37100
C804        C  0.90327378  0.49593998  0.29457623     0.37100
N805        N  0.96048457  0.40050910  0.26893165    -0.37700
N806        N  0.89301647  0.51163828  0.29861748    -0.37700
N807        N  0.94789931  0.43809562  0.16786690    -0.37100
N808        N  0.89763280  0.46976272  0.39667810    -0.37100
C809        C  0.85264153  0.70954655  0.12820087    -0.03800
C810        C  0.85986398  0.73053286  0.11490674    -0.00900
C811        C  0.86191953  0.74759053  0.14524550     0.04100
C812        C  0.85710410  0.74376898  0.18927244    -0.03800
C813        C  0.85054173  0.72258585  0.20277663    -0.00900
C814        C  0.84816529  0.70563046  0.17233062     0.04100
C815        C  0.86428625  0.73498320  0.06957980     0.38700
C816        C  0.84674220  0.71798121  0.24831287     0.38700
C817        C  0.84174659  0.68395563  0.18676152     0.37100
C818        C  0.86784951  0.76936549  0.13058118     0.37100
N819        N  0.83667627  0.66667513  0.19836876    -0.37700
N820        N  0.87248469  0.78674046  0.11880633    -0.37700
N821        N  0.84375756  0.71429641  0.28460486    -0.37100
N822        N  0.86785380  0.73864639  0.03350749    -0.37100
C823        C  0.85058158  0.71177746  0.92941657    -0.03800
C824        C  0.87050007  0.72312245  0.92568743    -0.00900
C825        C  0.87967333  0.74025667  0.40621559     0.04100
C826        C  0.85947503  0.74572174  0.38644823    -0.03800
C827        C  0.84061962  0.73361592  0.39698262    -0.00900
C828        C  0.83196153  0.71953103  0.90704211     0.04100
C829        C  0.88990767  0.71487908  0.94735597     0.38700
C830        C  0.81979253  0.73870775  0.37675049     0.38700
C831        C  0.81192225  0.70684095  0.90743626     0.37100
C832        C  0.89900740  0.75317614  0.39730073     0.37100
N833        N  0.79600016  0.69668164  0.90760713    -0.37700
N834        N  0.91437909  0.76353256  0.39018618    -0.37700
N835        N  0.80312376  0.74275588  0.36092030    -0.37100
N836        N  0.90539331  0.70826642  0.96451973    -0.37100
C837        C  0.88171882  0.60596816  0.07020229    -0.03800
C838        C  0.87193449  0.58591697  0.08256761    -0.00900
C839        C  0.88459413  0.56922904  0.10200007     0.04100
C840        C  0.90707014  0.57251420  0.10943243    -0.03800
C841        C  0.91697890  0.59222472  0.09563557    -0.00900
C842        C  0.90436835  0.60890502  0.07638356     0.04100
C843        C  0.84882218  0.58234574  0.07527987     0.38700
C844        C  0.94032390  0.59533690  0.10073554     0.38700
C845        C  0.91464120  0.62956592  0.06527046     0.37100
C846        C  0.87427982  0.54906077  0.11598679     0.37100
N847        N  0.92284194  0.64605571  0.05664815    -0.37700
N848        N  0.86605987  0.53298559  0.12722893    -0.37700
N849        N  0.95892020  0.59781710  0.10480578    -0.37100
N850        N  0.83038411  0.57945718  0.06962441    -0.37100
C851        C  0.69909638  0.23330744  0.45357354    -0.03800
C852        C  0.69712711  0.22716505  0.40969238    -0.00900
C853        C  0.70136702  0.24256413  0.37664499     0.04100
C854        C  0.70696962  0.26426396  0.38738225    -0.03800
C855        C  0.70715780  0.27086023  0.43097477    -0.00900
C856        C  0.67660524  0.23732401  0.92587283     0.04100
C857        C  0.69163252  0.20485778  0.39836512     0.38700
C858        C  0.66038956  0.27232602  0.90161040     0.38700
C859        C  0.65634448  0.23193525  0.94738627     0.37100
C860        C  0.70101414  0.23581717  0.33164535     0.37100
N861        N  0.64012547  0.22752543  0.96423119    -0.37700
N862        N  0.70084944  0.23045483  0.29576410    -0.37700
N863        N  0.64596694  0.28448270  0.90118963    -0.37100
N864        N  0.68703256  0.18712390  0.38922451    -0.37100
C865        C  0.70831431  0.26495017  0.18592069    -0.03800
C866        C  0.72612446  0.25796210  0.16085657    -0.00900
C867        C  0.72377559  0.24016714  0.13253508     0.04100
C868        C  0.70372618  0.22880316  0.12976611    -0.03800
C869        C  0.68570337  0.23624175  0.15397852    -0.00900
C870        C  0.68797237  0.25437344  0.18168147     0.04100
C871        C  0.74685202  0.26940016  0.16341616     0.38700
C872        C  0.66496020  0.22489127  0.15180009     0.38700
C873        C  0.66958986  0.26154278  0.20725912     0.37100
C874        C  0.74181411  0.23426801  0.10478486     0.37100
N875        N  0.65498947  0.26737780  0.22765868    -0.37700
N876        N  0.75613612  0.22967202  0.08245396    -0.37700
N877        N  0.64831324  0.21601039  0.15043145    -0.37100
N878        N  0.76340030  0.27844243  0.16542157    -0.37100
C879        C  0.77644493  0.33682995  0.22419812    -0.03800
C880        C  0.79694761  0.33991051  0.24411902    -0.00900
C881        C  0.81617260  0.33839031  0.21946616     0.04100
C882        C  0.81492331  0.33355224  0.17455546    -0.03800
C883        C  0.79431241  0.33451360  0.15372388    -0.00900
C884        C  0.77513950  0.33587136  0.17843551     0.04100
C885        C  0.79825723  0.34430567  0.29020176     0.38700
C886        C  0.79261380  0.33358956  0.10684819     0.38700
C887        C  0.75414756  0.33441597  0.15660951     0.37100
C888        C  0.83705096  0.34086125  0.24120884     0.37100
N889        N  0.73742026  0.33318371  0.13923905    -0.37700
N890        N  0.85364433  0.34295503  0.25875367    -0.37700
N891        N  0.79107468  0.33292808  0.06949727    -0.37100
N892        N  0.79931325  0.34794135  0.32689661    -0.37100
C893        C  0.67838166  0.35971502  0.34998931    -0.03800
C894        C  0.65550948  0.35836272  0.34396156    -0.00900
C895        C  0.64151370  0.37171445  0.36820016     0.04100
C896        C  0.65019155  0.38670752  0.39832964    -0.03800
C897        C  0.67292837  0.38806121  0.40462481    -0.00900
C898        C  0.68698198  0.37456964  0.38079608     0.04100
C899        C  0.64611593  0.34278213  0.31382909     0.38700
C900        C  0.68188780  0.40297073  0.43655498     0.38700
C901        C  0.71032693  0.37633565  0.38787027     0.37100
C902        C  0.61812400  0.37035907  0.36119880     0.37100
N903        N  0.72891675  0.37770701  0.39381163    -0.37700
N904        N  0.59949305  0.36920255  0.35562828    -0.37700
N905        N  0.68906216  0.41480826  0.46204851    -0.37100
N906        N  0.63857723  0.33040463  0.28979146    -0.37100
C907        C  0.70033073  0.72310929  0.28920853    -0.03800
C908        C  0.68044053  0.73015163  0.27029550    -0.00900
C909        C  0.67970214  0.74944056  0.24506741     0.04100
C910        C  0.69897388  0.76139317  0.23731834    -0.03800
C911        C  0.71863825  0.75493640  0.25785540    -0.00900
C912        C  0.71928226  0.73597334  0.28390338     0.04100
C913        C  0.66095534  0.71684932  0.27435415     0.38700
C914        C  0.73832991  0.76783861  0.25217521     0.38700
C915        C  0.73944598  0.72998777  0.30578323     0.37100
C916        C  0.65930484  0.75624834  0.22517588     0.37100
N917        N  0.75552607  0.72525743  0.32323046    -0.37700
N918        N  0.64300870  0.76172388  0.20949225    -0.37700
N919        N  0.75403703  0.77805452  0.24752792    -0.37100
N920        N  0.64546320  0.70615668  0.27731000    -0.37100
C921        C  0.69600768  0.71154332  0.48118099    -0.03800
C922        C  0.71415738  0.71641385  0.50779253    -0.00900
C923        C  0.71457368  0.73577642  0.53200144     0.04100
C924        C  0.69655191  0.75011072  0.53076552    -0.03800
C925        C  0.67781320  0.74454911  0.50628651    -0.00900
C926        C  0.67755769  0.72529790  0.48146178     0.04100
C927        C  0.73246277  0.70141999  0.51037873     0.38700
C928        C  0.65856020  0.77480048  0.00592065     0.38700
C929        C  0.65886390  0.72045370  0.45407193     0.37100
C930        C  0.73361259  0.74084585  0.55830642     0.37100
N931        N  0.64399031  0.71656778  0.43217230    -0.37700
N932        N  0.74882366  0.74499260  0.57906447    -0.37700
N933        N  0.64872537  0.79084495  0.00247049    -0.37100
N934        N  0.74702895  0.68946954  0.51261361    -0.37100
C935        C  0.76192464  0.63895458  0.43233569    -0.03800
C936        C  0.76174069  0.63401051  0.47737282    -0.00900
C937        C  0.78140334  0.63362225  0.50144457     0.04100
C938        C  0.80141054  0.63840395  0.48116921    -0.03800
C939        C  0.80186110  0.64041352  0.43538012    -0.00900
C940        C  0.78226671  0.64033319  0.41113106     0.04100
C941        C  0.74140276  0.63031807  0.49998454     0.38700
C942        C  0.82220975  0.64440814  0.41295677     0.38700
C943        C  0.78319864  0.64218662  0.36424890     0.37100
C944        C  0.76418894  0.63319709  0.03780814     0.37100
N945        N  0.78396904  0.64365949  0.32689670    -0.37700
N946        N  0.76475621  0.63117161  0.07509342    -0.37700
N947        N  0.83829396  0.64778276  0.39474285    -0.37100
N948        N  0.72523743  0.62735613  0.51819386    -0.37100
C949        C  0.61918633  0.52520958  0.11081877    -0.03800
C950        C  0.61671407  0.53396384  0.06832575    -0.00900
C951        C  0.62145084  0.52091793  0.03206526     0.04100
C952        C  0.62776330  0.49892115  0.03819436    -0.03800
C953        C  0.63513050  0.49233098  0.07984069    -0.00900
C954        C  0.63051969  0.50529856  0.11619854     0.04100
C955        C  0.60753497  0.55554303  0.06116723     0.38700
C956        C  0.64648699  0.47173610  0.08571879     0.38700
C957        C  0.63671777  0.49767732  0.15913637     0.37100
C958        C  0.61869411  0.52989168  0.98875675     0.37100
N959        N  0.64165221  0.49151973  0.19333272    -0.37700
N960        N  0.63812896  0.51466533  0.46702656    -0.37700
N961        N  0.65552429  0.45530298  0.09048616    -0.37100
N962        N  0.60015160  0.57269804  0.05514432    -0.37100
C963        C  0.62504266  0.59645178  0.27443591    -0.03800
C964        C  0.64690562  0.58920579  0.27739893    -0.00900
C965        C  0.66277501  0.60206104  0.29849893     0.04100
C966        C  0.65685616  0.62207730  0.31764329    -0.03800
C967        C  0.63499479  0.62930368  0.31472506    -0.00900
C968        C  0.61921920  0.61667158  0.29278465     0.04100
C969        C  0.65327618  0.56868017  0.25779683     0.38700
C970        C  0.62876862  0.65011526  0.33323724     0.38700
C971        C  0.59689804  0.62435365  0.29007256     0.37100
C972        C  0.68509931  0.59434965  0.30111876     0.37100
N973        N  0.57914470  0.63062566  0.28792506    -0.37700
N974        N  0.70285079  0.58804220  0.30287604    -0.37700
N975        N  0.62388885  0.66668377  0.34817362    -0.37100
N976        N  0.65820787  0.55226759  0.24226063    -0.37100
C977        C  0.18525671  0.72885863  0.37506764    -0.03800
C978        C  0.20211152  0.74444586  0.37160170    -0.00900
C979        C  0.20305557  0.76202367  0.40055638     0.04100
C980        C  0.16660634  0.74976486  0.92099489    -0.03800
C981        C  0.17029422  0.72878679  0.93929002    -0.00900
C982        C  0.17355412  0.71059080  0.91235127     0.04100
C983        C  0.21844178  0.74261940  0.33800264     0.38700
C984        C  0.17090618  0.72590202  0.98600663     0.38700
C985        C  0.17776748  0.68924959  0.93135710     0.37100
C986        C  0.22049631  0.77791514  0.39665830     0.37100
N987        N  0.18115523  0.67222507  0.94646302    -0.37700
N988        N  0.23462696  0.79028074  0.39288506    -0.37700
N989        N  0.17140014  0.72361179  0.02324038    -0.37100
N990        N  0.23156255  0.74125051  0.31143192    -0.37100
C991        C  0.17441730  0.72918941  0.17579454    -0.03800
C992        C  0.19356103  0.73236256  0.15131915    -0.00900
C993        C  0.19464198  0.74918351  0.12021255     0.04100
C994        C  0.17661879  0.76320062  0.11350270    -0.03800
C995        C  0.15756334  0.76019972  0.13853675    -0.00900
C996        C  0.15632761  0.74297020  0.16898905     0.04100
C997        C  0.21212505  0.71788928  0.15728221     0.38700
C998        C  0.13951363  0.77538322  0.13446754     0.38700
C999        C  0.13667450  0.73990528  0.19415408     0.37100
C1000       C  0.21416889  0.75139205  0.09423627     0.37100
N1001       N  0.12090048  0.73751515  0.21394614    -0.37700
N1002       N  0.22980027  0.75304677  0.07372885    -0.37700
N1003       N  0.12516930  0.78756176  0.13153014    -0.37100
N1004       N  0.22694797  0.70645181  0.16218049    -0.37100
C1005       C  0.03635653  0.51994045  0.01655444    -0.03800
C1006       C  0.00983688  0.55166557  0.53021017    -0.00900
C1007       C  0.99799703  0.52852352  0.02866211     0.04100
C1008       C  0.99916077  0.51833291  0.06975666    -0.03800
C1009       C  0.01886558  0.50869400  0.08382750    -0.00900
C1010       C  0.03719833  0.50886423  0.05678627     0.04100
C1011       C  0.00949365  0.57128647  0.50356476     0.38700
C1012       C  0.02114537  0.50112021  0.12817971     0.38700
C1013       C  0.05729694  0.49869610  0.07166303     0.37100
C1014       C  0.97772370  0.53834325  0.01403570     0.37100
N1015       N  0.07321461  0.49047761  0.08367825    -0.37700
N1016       N  0.96093712  0.57554835  0.56595728    -0.37700
N1017       N  0.02315964  0.49589547  0.16402634    -0.37100
N1018       N  0.00925752  0.58697131  0.48243059    -0.37100
C1019       C  0.03240451  0.54298797  0.33122365    -0.03800
C1020       C  0.01019238  0.54191853  0.34266261    -0.00900
C1021       C  0.99390230  0.54242152  0.31030470     0.04100
C1022       C  0.99977484  0.54320876  0.26611891    -0.03800
C1023       C  0.02205531  0.54472527  0.25483716    -0.00900
C1024       C  0.03829155  0.54460461  0.28734492     0.04100
C1025       C  0.00413515  0.53865765  0.38762919     0.38700
C1026       C  0.02833366  0.54677465  0.20977393     0.38700
C1027       C  0.06105612  0.54658477  0.27576742     0.37100
C1028       C  0.97118164  0.54090164  0.32267296     0.37100
N1029       N  0.07925814  0.54823693  0.26687749    -0.37700
N1030       N  0.95308078  0.53976053  0.33268725    -0.37700
N1031       N  0.03342199  0.54849088  0.17389476    -0.37100
N1032       N  0.99931629  0.53567002  0.42334325    -0.37100
C1033       C  0.14254972  0.63100660  0.34237289    -0.03800
C1034       C  0.12176454  0.63564314  0.35935251    -0.00900
C1035       C  0.10980343  0.61913283  0.38061992     0.04100
C1036       C  0.11881695  0.59802505  0.38612924    -0.03800
C1037       C  0.13994492  0.59364719  0.37044848    -0.00900
C1038       C  0.15169668  0.61001971  0.34850445     0.04100
C1039       C  0.11280247  0.65752377  0.35594757     0.38700
C1040       C  0.14972695  0.57224902  0.37669736     0.38700
C1041       C  0.17294192  0.60490314  0.33083263     0.37100
C1042       C  0.08771036  0.62361282  0.39447611     0.37100
N1043       N  0.18986279  0.60081851  0.31674044    -0.37700
N1044       N  0.07003306  0.62708613  0.40522392    -0.37700
N1045       N  0.15752249  0.55518228  0.38139475    -0.37100
N1046       N  0.10556043  0.67494289  0.35358719    -0.37100
C1047       C  0.35243438  0.74725753  0.44991471    -0.03800
C1048       C  0.34722345  0.72575291  0.43657058    -0.00900
C1049       C  0.34457244  0.70894445  0.46748584     0.04100
C1050       C  0.34888001  0.71305729  0.51157741    -0.03800
C1051       C  0.35501892  0.73433382  0.52475588    -0.00900
C1052       C  0.35649235  0.75142281  0.49410932     0.04100
C1053       C  0.34554774  0.72060506  0.39082288     0.38700
C1054       C  0.30426767  0.74361609  0.03673825     0.38700
C1055       C  0.36124944  0.77344442  0.50853568     0.37100
C1056       C  0.33735019  0.68745863  0.45381662     0.37100
N1057       N  0.36506976  0.79095827  0.52029548    -0.37700
N1058       N  0.33125612  0.67042554  0.44299480    -0.37700
N1059       N  0.29034714  0.74376206  0.06181537    -0.37100
N1060       N  0.34456558  0.71628506  0.35442368    -0.37100
C1061       C  0.34118383  0.74897057  0.25811130    -0.03800
C1062       C  0.32217070  0.73590146  0.25679155    -0.00900
C1063       C  0.32034466  0.71890494  0.22650616     0.04100
C1064       C  0.33787662  0.71421281  0.19873625    -0.03800
C1065       C  0.35742259  0.72623701  0.20200965    -0.00900
C1066       C  0.35900357  0.74376634  0.23121738     0.04100
C1067       C  0.30491857  0.73910358  0.28805562     0.38700
C1068       C  0.37556727  0.72125451  0.17387209     0.38700
C1069       C  0.37875026  0.75685114  0.23234640     0.37100
C1070       C  0.30047121  0.70601570  0.22429938     0.37100
N1071       N  0.39450309  0.76726281  0.23328365    -0.37700
N1072       N  0.28462085  0.69578447  0.22240370    -0.37700
N1073       N  0.39003894  0.71721294  0.15150071    -0.37100
N1074       N  0.29130225  0.74144386  0.31333573    -0.37100
C1075       C  0.26897449  0.64489054  0.15025395    -0.03800
C1076       C  0.26967849  0.64027713  0.19538941    -0.00900
C1077       C  0.25060834  0.64203496  0.22039400     0.04100
C1078       C  0.23090332  0.64907524  0.20100793    -0.03800
C1079       C  0.22949980  0.65014863  0.15519394    -0.00900
C1080       C  0.24837854  0.64740580  0.12997750     0.04100
C1081       C  0.28998895  0.63468843  0.21706140     0.38700
C1082       C  0.20912578  0.65558252  0.13359466     0.38700
C1083       C  0.24657231  0.64748449  0.08307000     0.37100
C1084       C  0.25132191  0.63675575  0.26630260     0.37100
N1085       N  0.24517019  0.64736898  0.04567015    -0.37700
N1086       N  0.25179828  0.63239736  0.30282780    -0.37700
N1087       N  0.19300109  0.66000045  0.11598141    -0.37100
N1088       N  0.30607976  0.63020229  0.23473404    -0.37100
C1089       C  0.48971933  0.54834007  0.06194304    -0.03800
C1090       C  0.48885079  0.56333176  0.09647170    -0.00900
C1091       C  0.50635325  0.56478773  0.12622472     0.04100
C1092       C  0.52514752  0.55183842  0.12059560    -0.03800
C1093       C  0.52587498  0.53670063  0.08618013    -0.00900
C1094       C  0.50807930  0.53470157  0.05747562     0.04100
C1095       C  0.46985482  0.57711770  0.10163889     0.38700
C1096       C  0.54549556  0.52413111  0.07838937     0.38700
C1097       C  0.50932476  0.51955010  0.02155912     0.37100
C1098       C  0.50470978  0.57910287  0.16333658     0.37100
N1099       N  0.51032915  0.50753363  0.99286347    -0.37700
N1100       N  0.50337756  0.59038066  0.19314511    -0.37700
N1101       N  0.56118825  0.51428587  0.07177159    -0.37100
N1102       N  0.45474014  0.58815174  0.10593579    -0.37100
C1103       C  0.53578243  0.53476812  0.31235025    -0.03800
C1104       C  0.51405117  0.53116709  0.29886081    -0.00900
C1105       C  0.49732776  0.52988563  0.32967080     0.04100
C1106       C  0.50241749  0.53146975  0.37412313    -0.03800
C1107       C  0.52437065  0.53324150  0.38777549    -0.00900
C1108       C  0.54099907  0.53552757  0.35683124     0.04100
C1109       C  0.50889301  0.52902861  0.25311152     0.38700
C1110       C  0.52974373  0.53370870  0.43361630     0.38700
C1111       C  0.56311137  0.54033061  0.37068126     0.37100
C1112       C  0.47493379  0.52661679  0.31568076     0.37100
N1113       N  0.58066212  0.54447900  0.38187333    -0.37700
N1114       N  0.45709179  0.52395920  0.30451298    -0.37700
N1115       N  0.53402489  0.53392938  0.47017512    -0.37100
N1116       N  0.50478521  0.52719254  0.21667616    -0.37100
C1117       C  0.39986939  0.59612303  0.98726075    -0.03800
C1118       C  0.38878048  0.57669025  0.53482042    -0.00900
C1119       C  0.36237883  0.60582949  0.00532277     0.04100
C1120       C  0.36998510  0.62438497  0.02809292    -0.03800
C1121       C  0.39256409  0.62916012  0.02863539    -0.00900
C1122       C  0.40744799  0.61480691  0.00929896     0.04100
C1123       C  0.37837961  0.55656547  0.52097051     0.38700
C1124       C  0.40059210  0.64925697  0.04777937     0.38700
C1125       C  0.43068851  0.61865204  0.01433645     0.37100
C1126       C  0.35447507  0.58734969  0.57028079     0.37100
N1127       N  0.44921566  0.62153177  0.01863543    -0.37700
N1128       N  0.33701898  0.58314239  0.58157692    -0.37700
N1129       N  0.40704422  0.66534938  0.06264909    -0.37100
N1130       N  0.37001402  0.54064158  0.50947693    -0.37100
C1131       C  0.16822353  0.26734981  0.29491492    -0.03800
C1132       C  0.16843005  0.27305903  0.25073576    -0.00900
C1133       C  0.16783735  0.25658903  0.21917227     0.04100
C1134       C  0.16700555  0.23430155  0.23178500    -0.03800
C1135       C  0.16474895  0.22876410  0.27594547    -0.00900
C1136       C  0.16570131  0.24524811  0.30756419     0.04100
C1137       C  0.16916714  0.29591747  0.23791210     0.38700
C1138       C  0.16255008  0.20608877  0.28914700     0.38700
C1139       C  0.16563783  0.23924234  0.35314232     0.37100
C1140       C  0.16799733  0.26265167  0.17364550     0.37100
N1141       N  0.16572993  0.23428045  0.38937461    -0.37700
N1142       N  0.16804749  0.26764303  0.13742884    -0.37700
N1143       N  0.16055788  0.18804330  0.29983123    -0.37100
N1144       N  0.16967896  0.31419330  0.22809173    -0.37100
C1145       C  0.18285239  0.22029472  0.53674661    -0.03800
C1146       C  0.20173300  0.22966232  0.51804361    -0.00900
C1147       C  0.20014935  0.24875976  0.49255636     0.04100
C1148       C  0.17961865  0.25855092  0.48430513    -0.03800
C1149       C  0.16067493  0.24888971  0.50169689    -0.00900
C1150       C  0.16226000  0.23002831  0.52808684     0.04100
C1151       C  0.22790013  0.24765536  0.07381434     0.38700
C1152       C  0.13936006  0.25784239  0.49130345     0.38700
C1153       C  0.14244320  0.22070279  0.54580228     0.37100
C1154       C  0.22001399  0.25869837  0.47617856     0.37100
N1155       N  0.12655028  0.21354377  0.56004430    -0.37700
N1156       N  0.23585455  0.26654100  0.46313546    -0.37700
N1157       N  0.12235348  0.26491093  0.48294618    -0.37100
N1158       N  0.24195062  0.24430937  0.09814939    -0.37100
C1159       C  0.01819466  0.43390251  0.05146668    -0.03800
C1160       C  0.00722193  0.44153667  0.08843056    -0.00900
C1161       C  0.01835813  0.44321965  0.12836650     0.04100
C1162       C  0.04083268  0.43836285  0.13109623    -0.03800
C1163       C  0.05180454  0.43080360  0.09394134    -0.00900
C1164       C  0.04047055  0.42839383  0.05441024     0.04100
C1165       C  0.98427203  0.44707120  0.08551785     0.38700
C1166       C  0.07495304  0.42607183  0.09579416     0.38700
C1167       C  0.05197699  0.42093425  0.01635294     0.37100
C1168       C  0.00640495  0.44890967  0.16702246     0.37100
N1169       N  0.04304134  0.40921663  0.39934884    -0.37700
N1170       N  0.99680006  0.45338527  0.19782018    -0.37700
N1171       N  0.09339603  0.42221884  0.09706377    -0.37100
N1172       N  0.96602482  0.45154228  0.08216588    -0.37100
C1173       C  0.00934271  0.47068807  0.41179964    -0.03800
C1174       C  0.03154920  0.46834404  0.42268605    -0.00900
C1175       C  0.04765984  0.47292138  0.39142141     0.04100
C1176       C  0.04130217  0.47841136  0.34857219    -0.03800
C1177       C  0.01930985  0.48398982  0.34027020    -0.00900
C1178       C  0.00356474  0.48123891  0.37279562     0.04100
C1179       C  0.03747607  0.45789082  0.46339635     0.38700
C1180       C  0.01231876  0.48944903  0.29665956     0.38700
C1181       C  0.98076569  0.48553586  0.36341696     0.37100
C1182       C  0.07031345  0.46885362  0.40185723     0.37100
N1183       N  0.96256821  0.48890164  0.35606239    -0.37700
N1184       N  0.08833615  0.46557849  0.41083564    -0.37700
N1185       N  0.00669045  0.49304176  0.26153440    -0.37100
N1186       N  0.06029351  0.44420635  0.90176703    -0.37100
C1187       C  0.12698910  0.50455930  0.06377600    -0.03800
C1188       C  0.13331103  0.48271961  0.07236089    -0.00900
C1189       C  0.13181713  0.47409581  0.11486231     0.04100
C1190       C  0.12310390  0.48702140  0.14854468    -0.03800
C1191       C  0.12202437  0.50982420  0.14189724    -0.00900
C1192       C  0.12409579  0.51864996  0.09975636     0.04100
C1193       C  0.14091440  0.46889854  0.03762428     0.38700
C1194       C  0.11866226  0.52427583  0.17827025     0.38700
C1195       C  0.12233513  0.54212993  0.09394090     0.37100
C1196       C  0.13910042  0.45194716  0.12343935     0.37100
N1197       N  0.12092932  0.56088148  0.08966742    -0.37700
N1198       N  0.14523382  0.43436744  0.13019053    -0.37700
N1199       N  0.11623436  0.53590799  0.20721292    -0.37100
N1200       N  0.14242445  0.48140041  0.43332813    -0.37100
C1201       C  0.11201340  0.39968562  0.31171122    -0.03800
C1202       C  0.11107587  0.37848863  0.29346455    -0.00900
C1203       C  0.12228948  0.36099683  0.31342057     0.04100
C1204       C  0.13446454  0.36447982  0.35160432    -0.03800
C1205       C  0.13493176  0.38527130  0.37067568    -0.00900
C1206       C  0.12396251  0.40288781  0.35065318     0.04100
C1207       C  0.09991289  0.37480935  0.25253001     0.38700
C1208       C  0.14746907  0.38867067  0.41012484     0.38700
C1209       C  0.12563691  0.42433984  0.36989241     0.37100
C1210       C  0.12160491  0.33939036  0.29429209     0.37100
N1211       N  0.12751053  0.44140883  0.38530300    -0.37700
N1212       N  0.12099327  0.32215810  0.27910556    -0.37700
N1213       N  0.15749582  0.39127583  0.44155742    -0.37100
N1214       N  0.09113394  0.37187916  0.21976836    -0.37100
C1215       C  0.52726531  0.44320564  0.29050464    -0.03800
C1216       C  0.54663019  0.43244835  0.27845672    -0.00900
C1217       C  0.56516455  0.43345000  0.30560017     0.04100
C1218       C  0.56445286  0.44538043  0.34449770    -0.03800
C1219       C  0.54569773  0.45755248  0.35474465    -0.00900
C1220       C  0.52706721  0.45630737  0.32805339     0.04100
C1221       C  0.54762180  0.42065731  0.23789077     0.38700
C1222       C  0.54495372  0.47008165  0.39448166     0.38700
C1223       C  0.50719797  0.46723284  0.34109219     0.37100
C1224       C  0.58503264  0.42225746  0.29362164     0.37100
N1225       N  0.49128976  0.47575397  0.35160146    -0.37700
N1226       N  0.60094298  0.41347308  0.28397610    -0.37700
N1227       N  0.54432097  0.48003405  0.42618519    -0.37100
N1228       N  0.54846582  0.41136407  0.20541610    -0.37100
C1229       C  0.50923593  0.46111313  0.10666865    -0.03800
C1230       C  0.50390618  0.45776082  0.06277713    -0.00900
C1231       C  0.52813974  0.42930747  0.52381806     0.04100
C1232       C  0.54269692  0.45674829  0.04545799    -0.03800
C1233       C  0.54786444  0.46157539  0.08894353    -0.00900
C1234       C  0.53112119  0.46440449  0.11916971     0.04100
C1235       C  0.48134494  0.45435519  0.05023738     0.38700
C1236       C  0.57045129  0.46344787  0.10272940     0.38700
C1237       C  0.53644124  0.46988768  0.16369053     0.37100
C1238       C  0.52345280  0.42607561  0.47818159     0.37100
N1239       N  0.54081914  0.47448551  0.19899707    -0.37700
N1240       N  0.51967315  0.42346535  0.44180096    -0.37700
N1241       N  0.58846872  0.46484641  0.11365302    -0.37100
N1242       N  0.46330893  0.45146731  0.04069260    -0.37100
C1243       C  0.41793612  0.48404290  0.39095916    -0.03800
C1244       C  0.42474129  0.46208562  0.39424313    -0.00900
C1245       C  0.43016478  0.45057278  0.35637971     0.04100
C1246       C  0.42765744  0.46082840  0.31517163    -0.03800
C1247       C  0.41525568  0.48023573  0.31239847    -0.00900
C1248       C  0.41013253  0.49169993  0.35039488     0.04100
C1249       C  0.42743045  0.45177085  0.43637659     0.38700
C1250       C  0.40869813  0.48907129  0.27058984     0.38700
C1251       C  0.39823382  0.51212147  0.34730236     0.37100
C1252       C  0.43995089  0.42909268  0.36078685     0.37100
N1253       N  0.38883394  0.52845924  0.34467391    -0.37700
N1254       N  0.44783898  0.41201686  0.36467441    -0.37700
N1255       N  0.40354204  0.49619228  0.23725845    -0.37100
N1256       N  0.42940013  0.44340788  0.46989222    -0.37100
C1257       C  0.35507389  0.26060643  0.95153834    -0.03800
C1258       C  0.33505033  0.25628057  0.93005420    -0.00900
C1259       C  0.31947712  0.25218716  0.40998128     0.04100
C1260       C  0.33859281  0.23968512  0.40429402    -0.03800
C1261       C  0.35820928  0.24613688  0.42500492    -0.00900
C1262       C  0.37254635  0.24581318  0.94709184     0.04100
C1263       C  0.31701921  0.27156831  0.93282186     0.38700
C1264       C  0.37787768  0.23325468  0.42039584     0.38700
C1265       C  0.39232181  0.24859293  0.97255513     0.37100
C1266       C  0.29946703  0.24660231  0.38721066     0.37100
N1267       N  0.40795086  0.25063929  0.99333769    -0.37700
N1268       N  0.28347603  0.24222180  0.36914533    -0.37700
N1269       N  0.39360378  0.22304189  0.41686477    -0.37100
N1270       N  0.30259712  0.28367705  0.93478455    -0.37100
C1271       C  0.35235212  0.26505390  0.14426492    -0.03800
C1272       C  0.35566822  0.24287628  0.13323893    -0.00900
C1273       C  0.35416620  0.22638886  0.16522534     0.04100
C1274       C  0.34926753  0.23200847  0.20828589    -0.03800
C1275       C  0.34646381  0.25423339  0.21938937    -0.00900
C1276       C  0.34754347  0.27062054  0.18735910     0.04100
C1277       C  0.35929202  0.23680253  0.08850066     0.38700
C1278       C  0.34320904  0.26041895  0.26423723     0.38700
C1279       C  0.34392808  0.29325758  0.19905822     0.37100
C1280       C  0.35681286  0.20364609  0.15336565     0.37100
N1281       N  0.34085047  0.31126467  0.20842357    -0.37700
N1282       N  0.35896721  0.18554234  0.14368836    -0.37700
N1283       N  0.34075026  0.26537079  0.29997947    -0.37100
N1284       N  0.36198412  0.23180678  0.05286135    -0.37100
C1285       C  0.23460583  0.34123112  0.45989845    -0.03800
C1286       C  0.25331351  0.34921668  0.43862319    -0.00900
C1287       C  0.27302800  0.35219411  0.46184558     0.04100
C1288       C  0.27434153  0.34685625  0.50671999    -0.03800
C1289       C  0.25476339  0.34189262  0.52883141    -0.00900
C1290       C  0.23525556  0.33838865  0.50547929     0.04100
C1291       C  0.25249350  0.35395801  0.39249950     0.38700
C1292       C  0.28914498  0.36262152  0.03030343     0.38700
C1293       C  0.21645480  0.32984390  0.52842952     0.37100
C1294       C  0.29190504  0.36038998  0.43878374     0.37100
N1295       N  0.20158560  0.32282438  0.54672202    -0.37700
N1296       N  0.30685130  0.36697855  0.42012024    -0.37700
N1297       N  0.28921402  0.36916391  0.06539227    -0.37100
N1298       N  0.25192186  0.35768085  0.35570776    -0.37100
C1299       C  0.40313904  0.36029935  0.10104803    -0.03800
C1300       C  0.39506878  0.38136497  0.11024144    -0.00900
C1301       C  0.40799115  0.39650527  0.13311407     0.04100
C1302       C  0.42951187  0.39101412  0.14606065    -0.03800
C1303       C  0.43768354  0.36996169  0.13635536    -0.00900
C1304       C  0.42451328  0.35467171  0.11413187     0.04100
C1305       C  0.37351433  0.38776071  0.09514275     0.38700
C1306       C  0.45978941  0.36399158  0.14848501     0.38700
C1307       C  0.43280098  0.33289929  0.10606696     0.37100
C1308       C  0.39860813  0.41746494  0.14446530     0.37100
N1309       N  0.43952458  0.31555480  0.09982827    -0.37700
N1310       N  0.39099872  0.43411077  0.15345003    -0.37700
N1311       N  0.47740670  0.35925988  0.15827241    -0.37100
N1312       N  0.35637193  0.39283467  0.08293977    -0.37100
O1313       O  0.29758957  0.33436634  0.56596144    -0.56300
C1314       C  0.34103434  0.28931755  0.62225036     0.76400
O1315       O  0.35268561  0.30888197  0.49457483    -0.57400
C1316       C  0.29599647  0.34244371  0.52813561     0.76300
C1317       C  0.36749385  0.35559202  0.58671127     0.78700
Cd1318     Cd  0.33600123  0.32387608  0.56017123     1.37500
O1319       O  0.32605668  0.30342751  0.62656998    -0.56300
O1320       O  0.35045789  0.35201013  0.60854062    -0.55100
C1321       C  0.33862778  0.29366549  0.49193887     0.78700
O1322       O  0.36916799  0.34548541  0.55122715    -0.57400
O1323       O  0.35415216  0.29230192  0.59143390    -0.55900
O1324       O  0.31375810  0.34442802  0.50799088    -0.55900
O1325       O  0.32382693  0.29313450  0.52013773    -0.55100
O1326       O  0.44994121  0.46896438  0.72279736    -0.56300
C1327       C  0.49797969  0.43657325  0.62921264     0.76400
O1328       O  0.49227935  0.41950353  0.75190010    -0.57400
C1329       C  0.44277177  0.45944547  0.75676582     0.76300
C1330       C  0.43585649  0.40927145  0.65987709     0.78700
Cd1331     Cd  0.46809684  0.43584909  0.69737710     1.37500
O1332       O  0.48544113  0.45298406  0.63397024    -0.56300
O1333       O  0.43742989  0.42945128  0.65060709    -0.55100
C1334       C  0.50204614  0.43759886  0.75865367     0.78700
O1335       O  0.44953173  0.40124320  0.68676108    -0.57400
O1336       O  0.49558357  0.42032236  0.65431184    -0.55900
O1337       O  0.44555509  0.43896010  0.75950313    -0.55900
O1338       O  0.49608504  0.45404897  0.73642321    -0.55100
O1339       O  0.09252964  0.44439640  0.62690835    -0.56300
C1340       C  0.06855393  0.41179110  0.71990444     0.76400
O1341       O  0.09269010  0.38657764  0.57638035    -0.57400
C1342       C  0.10937014  0.44590310  0.60367894     0.76300
C1343       C  0.13183705  0.38496372  0.69288563     0.78700
Cd1344     Cd  0.09708930  0.40636859  0.64736908     1.37500
O1345       O  0.07931924  0.42778248  0.70490069    -0.56300
O1346       O  0.13073098  0.40551347  0.68961250    -0.55100
C1347       C  0.07209493  0.38682462  0.57860099     0.78700
O1348       O  0.11763884  0.37422403  0.67198648    -0.57400
O1349       O  0.07124152  0.39356238  0.70164587    -0.55900
O1350       O  0.12123590  0.42903273  0.60207271    -0.55900
O1351       O  0.06406119  0.39493181  0.61238107    -0.55100
O1352       O  0.25010557  0.32042082  0.87282926    -0.56300
C1353       C  0.20923768  0.27416203  0.81817351     0.76400
O1354       O  0.18786314  0.30331143  0.93299044    -0.57400
C1355       C  0.24912891  0.33563481  0.90038681     0.76300
C1356       C  0.18767108  0.33871260  0.81355638     0.78700
Cd1357     Cd  0.21165450  0.31181985  0.87092924     1.37500
O1358       O  0.22712385  0.28438785  0.82284640    -0.56300
O1359       O  0.20501282  0.32927503  0.80235424    -0.55100
C1360       C  0.20056396  0.28824747  0.94612057     0.78700
O1361       O  0.18191044  0.33678303  0.85282470    -0.57400
O1362       O  0.19296830  0.28132703  0.83855803    -0.55900
O1363       O  0.23019982  0.34086059  0.91259615    -0.55900
O1364       O  0.21786625  0.28520746  0.92514389    -0.55100
O1365       O  0.43175991  0.51457017  0.93521402    -0.56300
C1366       C  0.48152892  0.52950241  0.53917759     0.76400
O1367       O  0.47268307  0.56569056  0.89167921    -0.57400
C1368       C  0.42917320  0.51802655  0.89483542     0.76300
C1369       C  0.42410879  0.56362336  0.50422335     0.78700
Cd1370     Cd  0.44885524  0.55021199  0.94830569     1.37500
O1371       O  0.46901513  0.51323509  0.53258248    -0.56300
O1372       O  0.42336750  0.54399413  0.51750079    -0.55100
C1373       C  0.48665987  0.55047741  0.89582070     0.78700
O1374       O  0.43178749  0.58614694  0.94732443    -0.57400
O1375       O  0.47923503  0.54609936  0.51497070    -0.55900
O1376       O  0.43320926  0.53719262  0.88147947    -0.55900
O1377       O  0.48348928  0.53632443  0.92504648    -0.55100
O1378       O  0.30688076  0.65253937  0.62112003    -0.56300
C1379       C  0.33290170  0.70629817  0.03193160     0.76400
O1380       O  0.36190082  0.68505027  0.67411570    -0.57400
C1381       C  0.30983824  0.64451823  0.65878636     0.76300
C1382       C  0.37184508  0.63067132  0.58378264     0.78700
Cd1383     Cd  0.34476375  0.66481907  0.61352335     1.37500
O1384       O  0.31461806  0.69662951  0.03467064    -0.56300
O1385       O  0.35308811  0.63425971  0.56797030    -0.55100
C1386       C  0.34695534  0.69947792  0.67333455     0.78700
O1387       O  0.37816924  0.64288889  0.61455549    -0.57400
O1388       O  0.34832976  0.69887174  0.05496180    -0.55900
O1389       O  0.32926048  0.64400094  0.67280516    -0.55900
O1390       O  0.33201906  0.69723797  0.64532425    -0.55100
O1391       O  0.11734141  0.49827413  0.98782963    -0.56300
C1392       C  0.07259365  0.51429144  0.86813442     0.76400
O1393       O  0.06410327  0.54050516  0.97955936    -0.57400
C1394       C  0.11977710  0.51160937  0.01915851     0.76300
C1395       C  0.12169875  0.55603934  0.90118631     0.78700
Cd1396     Cd  0.09582939  0.52462482  0.94383523     1.37500
O1397       O  0.08570954  0.49994986  0.88346497    -0.56300
O1398       O  0.12563534  0.53575794  0.89725467    -0.55100
C1399       C  0.05636345  0.52197820  0.99052605     0.78700
O1400       O  0.10715953  0.56148435  0.92820176    -0.57400
O1401       O  0.07172137  0.53264879  0.88658402    -0.55900
O1402       O  0.11353006  0.53102509  0.01196706    -0.55900
O1403       O  0.06682862  0.50511518  0.97940951    -0.55100
O1404       O  0.19586114  0.68390855  0.84260610    -0.56300
C1405       C  0.23021568  0.64267137  0.75205004     0.76400
O1406       O  0.16018926  0.63404796  0.77196513    -0.57400
C1407       C  0.17820308  0.69455637  0.83842950     0.76300
C1408       C  0.18848517  0.69121816  0.70706614     0.78700
Cd1409     Cd  0.18954294  0.66152449  0.77767175     1.37500
O1410       O  0.22873247  0.65442844  0.78567627    -0.56300
O1411       O  0.20360400  0.69053810  0.73503815    -0.55100
C1412       C  0.16563007  0.62473962  0.80733198     0.78700
O1413       O  0.17321928  0.67721897  0.71065567    -0.57400
O1414       O  0.21240035  0.63847624  0.73288949    -0.55900
O1415       O  0.16556219  0.68903959  0.80785530    -0.55900
O1416       O  0.18173765  0.63258503  0.82779396    -0.55100
O1417       O  0.57288190  0.52296393  0.77942856    -0.56300
C1418       C  0.61784809  0.51530715  0.65738108     0.76400
O1419       O  0.56549698  0.55285890  0.65806871    -0.57400
C1420       C  0.55900730  0.53846111  0.78109027     0.76300
C1421       C  0.61606051  0.57232648  0.74788650     0.78700
Cd1422     Cd  0.58978705  0.53888355  0.71332955     1.37500
O1423       O  0.61188578  0.50679973  0.69326735    -0.56300
O1424       O  0.61799257  0.55272898  0.76110007    -0.55100
C1425       C  0.55531387  0.53482529  0.65413208     0.78700
O1426       O  0.60287033  0.57601651  0.71680320    -0.57400
O1427       O  0.61215195  0.53493559  0.65091812    -0.55900
O1428       O  0.56029484  0.55353870  0.75305420    -0.55900
O1429       O  0.56177896  0.51867932  0.67670221    -0.55100
O1430       O  0.70285536  0.70155315  0.81936142    -0.56300
C1431       C  0.72260551  0.65168347  0.90448170     0.76400
O1432       O  0.69958238  0.70036521  0.92750857    -0.57400
C1433       C  0.68566869  0.71268912  0.81327854     0.76300
C1434       C  0.66228904  0.64286591  0.83170240     0.78700
Cd1435     Cd  0.68654052  0.67663110  0.87237509     1.37500
O1436       O  0.72410598  0.66387371  0.87118340    -0.56300
O1437       O  0.67990133  0.65014819  0.81624000    -0.55100
C1438       C  0.68169398  0.70336428  0.94648390     0.78700
O1439       O  0.65538035  0.65168936  0.86610311    -0.57400
O1440       O  0.70391123  0.65033106  0.92139958    -0.55900
O1441       O  0.66874765  0.70625434  0.83273249    -0.55900
O1442       O  0.66513514  0.69314926  0.93204161    -0.55100
O1443       O  0.71819512  0.29498767  0.86240534    -0.56300
C1444       C  0.74787302  0.34134407  0.78106656     0.76400
O1445       O  0.69077773  0.30715897  0.73863244    -0.57400
C1446       C  0.70093453  0.28364684  0.85881236     0.76300
C1447       C  0.68115586  0.35387750  0.84470344     0.78700
Cd1448     Cd  0.70786043  0.32112856  0.80570482     1.37500
O1449       O  0.74623967  0.32976039  0.81513639    -0.56300
O1450       O  0.69848927  0.34686421  0.86231785    -0.55100
C1451       C  0.70604111  0.29346735  0.73252404     0.78700
O1452       O  0.67623095  0.34616061  0.80778383    -0.57400
O1453       O  0.73015831  0.34550872  0.76134053    -0.55900
O1454       O  0.68633269  0.29079034  0.83336888    -0.55900
O1455       O  0.72221178  0.29417626  0.75797276    -0.55100
O1456       O  0.58209910  0.46508454  0.89150285    -0.56300
C1457       C  0.62075817  0.48193140  0.00639553     0.76400
O1458       O  0.57492535  0.43846351  0.02067661    -0.57400
C1459       C  0.57086964  0.44792847  0.88440904     0.76300
C1460       C  0.62693559  0.41740733  0.93130782     0.78700
Cd1461     Cd  0.59710472  0.44999634  0.95872208     1.37500
O1462       O  0.61354770  0.48651085  0.96867248    -0.56300
O1463       O  0.62795402  0.43701132  0.91790063    -0.55100
C1464       C  0.56054654  0.45314775  0.01451773     0.78700
O1465       O  0.61280781  0.41307603  0.96004563    -0.57400
O1466       O  0.61915886  0.46214418  0.01813774    -0.55900
O1467       O  0.57301248  0.43199141  0.91040579    -0.55900
O1468       O  0.56266395  0.46539181  0.98172805    -0.55100
O1469       O  0.84780201  0.68401760  0.61234783    -0.56300
C1470       C  0.82106475  0.64411125  0.50769914     0.76400
O1471       O  0.87648770  0.67906290  0.48427059    -0.57400
C1472       C  0.86539863  0.69504041  0.61352278     0.76300
C1473       C  0.88393079  0.62982936  0.58881686     0.78700
Cd1474     Cd  0.85863537  0.66303901  0.54867269     1.37500
O1475       O  0.81951038  0.65439935  0.54318438    -0.56300
O1476       O  0.86543121  0.63557822  0.60253970    -0.55100
C1477       C  0.86240918  0.69431219  0.48179035     0.78700
O1478       O  0.89042293  0.63869495  0.55383945    -0.57400
O1479       O  0.84020414  0.64042349  0.49454734    -0.55900
O1480       O  0.87980022  0.69042525  0.58593797    -0.55900
O1481       O  0.84795055  0.69489741  0.51069203    -0.55100
O1482       O  0.96871819  0.51363842  0.63914112    -0.56300
C1483       C  0.93464675  0.50751450  0.76650669     0.76400
O1484       O  0.99235111  0.54072550  0.75578524    -0.57400
C1485       C  0.98104463  0.52934110  0.62742192     0.76300
C1486       C  0.93513711  0.56700621  0.68490906     0.78700
Cd1487     Cd  0.96151011  0.53140968  0.70888970     1.37500
O1488       O  0.93812116  0.50062084  0.72835731    -0.56300
O1489       O  0.93122627  0.54756320  0.67321934    -0.55100
C1490       C  0.00079933  0.52179399  0.75344138     0.78700
O1491       O  0.95107736  0.57008776  0.71078233    -0.57400
O1492       O  0.94192133  0.52638366  0.77522833    -0.55900
O1493       O  0.98327344  0.54533812  0.65280710    -0.55900
O1494       O  0.99118919  0.50771195  0.73033282    -0.55100
O1495       O  0.85253332  0.27751188  0.05916669    -0.56300
C1496       C  0.82579984  0.33117936  0.68880079     0.76400
O1497       O  0.87721544  0.28617847  0.69514396    -0.57400
C1498       C  0.86855158  0.26455481  0.05536449     0.76300
C1499       C  0.88331148  0.34275820  0.60480539     0.78700
Cd1500     Cd  0.85783684  0.30870429  0.64077394     1.37500
O1501       O  0.82147252  0.32305645  0.65191851    -0.56300
O1502       O  0.86381936  0.33939011  0.59294714    -0.55100
C1503       C  0.86181675  0.27219694  0.69680671     0.78700
O1504       O  0.89081917  0.33100939  0.63558878    -0.57400
O1505       O  0.84529263  0.32953472  0.70219936    -0.55900
O1506       O  0.87488395  0.28254726  0.59459363    -0.55900
O1507       O  0.84492498  0.27605676  0.67433557    -0.55100
O1508       O  0.98867743  0.40696753  0.49533561    -0.56300
C1509       C  0.94801939  0.44800483  0.89474553     0.76400
O1510       O  0.99780033  0.40117245  0.87726975    -0.57400
C1511       C  0.99964055  0.39380574  0.47263567     0.76300
C1512       C  0.93281983  0.39869840  0.49074758     0.78700
Cd1513     Cd  0.97985566  0.42062552  0.93675190     1.37500
O1514       O  0.96168310  0.45560365  0.92172464    -0.56300
O1515       O  0.93958785  0.41774043  0.50072497    -0.55100
C1516       C  0.01031558  0.41684980  0.86699672     0.85100
O1517       O  0.96719540  0.38268312  0.94867500    -0.57400
O1518       O  0.94844170  0.42753277  0.88965498    -0.55900
O1519       O  0.99346917  0.39090822  0.43351867    -0.55900
O1520       O  0.00907066  0.43383282  0.88991474    -0.55100
O1521       O  0.33201692  0.19449490  0.85894876    -0.56300
C1522       C  0.30920738  0.15430773  0.75561775     0.76400
O1523       O  0.36095321  0.19791002  0.73105893    -0.57400
C1524       C  0.34909172  0.20591647  0.86469075     0.76300
C1525       C  0.37383780  0.14327232  0.82051667     0.78700
Cd1526     Cd  0.34544493  0.17715691  0.79278412     1.37500
O1527       O  0.30798212  0.16306823  0.79269203    -0.56300
O1528       O  0.35498088  0.14604191  0.83570318    -0.55100
C1529       C  0.34636110  0.21262765  0.73292413     0.78700
O1530       O  0.37987641  0.15611951  0.79038784    -0.57400
O1531       O  0.32765435  0.15521912  0.73761618    -0.55900
O1532       O  0.36470234  0.20260840  0.83902612    -0.55900
O1533       O  0.33155860  0.21004209  0.76072047    -0.55100
O1534       O  0.47339163  0.03935752  0.91143323    -0.56300
C1535       C  0.42905006  0.01598851  0.00550875     0.76400
O1536       O  0.46320551  0.07424755  0.03310422    -0.57400
C1537       C  0.48615427  0.05570719  0.91194891     0.76300
C1538       C  0.42187762  0.08098200  0.92292588     0.78700
Cd1539     Cd  0.45046560  0.05326700  0.97006823     1.37500
O1540       O  0.44128426  0.01483979  0.97267695    -0.56300
O1541       O  0.42561670  0.06162399  0.91094366    -0.55100
C1542       C  0.47725144  0.05982729  0.04339223     0.78700
O1543       O  0.42962358  0.08677909  0.95930816    -0.57400
O1544       O  0.42452156  0.03508485  0.01824516    -0.55900
O1545       O  0.48216197  0.07057355  0.93893714    -0.55900
O1546       O  0.47778731  0.04265513  0.02094406    -0.55100
O1547       O  0.20527416  0.20834975  0.08293117    -0.56300
C1548       C  0.22826355  0.14826294  0.66855106     0.76400
O1549       O  0.17773335  0.19102840  0.69744449    -0.57400
C1550       C  0.18913661  0.22041519  0.07321979     0.76300
C1551       C  0.16493597  0.13567688  0.60212200     0.78700
Cd1552     Cd  0.19101067  0.16993566  0.63478295     1.37500
O1553       O  0.22843908  0.15859484  0.63271855    -0.56300
O1554       O  0.18371037  0.14012383  0.58794033    -0.55100
C1555       C  0.19487955  0.20286432  0.69839331     0.78700
O1556       O  0.15804348  0.14673759  0.63403776    -0.57400
O1557       O  0.20988256  0.14631145  0.68675094    -0.55900
O1558       O  0.17120101  0.21585791  0.09107601    -0.55900
O1559       O  0.20948355  0.19844137  0.67119917    -0.55100
O1560       O  0.07352613  0.02362672  0.50827709    -0.56300
C1561       C  0.12634738  0.03335822  0.88343474     0.76400
O1562       O  0.07219641  0.06482986  0.86988544    -0.57400
C1563       C  0.06031004  0.03936266  0.51377993     0.76300
C1564       C  0.11834932  0.07354562  0.49610208     0.78700
Cd1565     Cd  0.09678094  0.05849597  0.93181008     1.37500
O1566       O  0.11947281  0.02642819  0.91991137    -0.56300
O1567       O  0.11736189  0.05355995  0.50683204    -0.55100
C1568       C  0.06226155  0.04668182  0.87533404     0.78700
O1569       O  0.11035923  0.09600867  0.93663325    -0.57400
O1570       O  0.12133312  0.05282318  0.87327523    -0.55900
O1571       O  0.06274248  0.05624385  0.49048192    -0.55900
O1572       O  0.06821802  0.03471089  0.90686457    -0.55100
O1573       O  0.48174730  0.94301479  0.74544233    -0.56300
C1574       C  0.43691498  0.96267110  0.64550108     0.76400
O1575       O  0.47622156  0.90622968  0.62319351    -0.57400
C1576       C  0.49557674  0.92759658  0.74596864     0.76300
C1577       C  0.42867668  0.90039486  0.72716567     0.78700
Cd1578     Cd  0.46042004  0.92727802  0.68480953     1.37500
O1579       O  0.44931708  0.96562015  0.67805581    -0.56300
O1580       O  0.43208578  0.91998046  0.73820811    -0.55100
C1581       C  0.48844064  0.92211091  0.61215817     0.78700
O1582       O  0.43940944  0.89335395  0.69514586    -0.57400
O1583       O  0.43414054  0.94302032  0.63407451    -0.55900
O1584       O  0.49238189  0.91208372  0.71988181    -0.55900
O1585       O  0.48692221  0.93939944  0.63407160    -0.55100
O1586       O  0.32734230  0.79046028  0.77949629    -0.56300
C1587       C  0.29634014  0.82136735  0.86679374     0.76400
O1588       O  0.34106171  0.79992943  0.92359394    -0.57400
C1589       C  0.34313005  0.77707428  0.77973504     0.76300
C1590       C  0.36917502  0.84333511  0.81863415     0.78700
Cd1591     Cd  0.33976121  0.80945817  0.84523845     1.37500
O1592       O  0.30062109  0.81149838  0.83193788    -0.56300
O1593       O  0.35048238  0.84105478  0.80191724    -0.55100
C1594       C  0.34463715  0.77985711  0.91673719     0.78700
O1595       O  0.37380617  0.83087976  0.85025417    -0.57400
O1596       O  0.31240199  0.82798653  0.88906053    -0.55900
O1597       O  0.35762889  0.77995929  0.80844522    -0.55900
O1598       O  0.34807112  0.77445415  0.87806461    -0.55100
O1599       O  0.08246009  0.95046992  0.65031333    -0.56300
C1600       C  0.12867217  0.96862609  0.75838162     0.76400
O1601       O  0.08043997  0.92065382  0.77058182    -0.57400
C1602       C  0.07090928  0.93313571  0.64864218     0.76300
C1603       C  0.13126312  0.90453838  0.68144565     0.78700
Cd1604     Cd  0.10293601  0.93677903  0.71412515     1.37500
O1605       O  0.12038998  0.97294599  0.72138155    -0.56300
O1606       O  0.12997088  0.92341755  0.66441218    -0.55100
C1607       C  0.06780775  0.93707622  0.77281447     0.78700
O1608       O  0.12068898  0.90113802  0.71606779    -0.57400
O1609       O  0.12660354  0.94906984  0.77140905    -0.55900
O1610       O  0.07562960  0.91795404  0.67495117    -0.55900
O1611       O  0.07266113  0.95354397  0.74983744    -0.55100
O1612       O  0.21314501  0.77897268  0.59833955    -0.56300
C1613       C  0.23704816  0.82529734  0.50394893     0.76400
O1614       O  0.17660122  0.79282529  0.48198260    -0.57400
C1615       C  0.19559247  0.76791480  0.59852039     0.76300
C1616       C  0.17728391  0.83849112  0.58599993     0.78700
Cd1617     Cd  0.20001984  0.80491504  0.54249465     1.37500
O1618       O  0.23903770  0.81204897  0.53559517    -0.56300
O1619       O  0.19602791  0.83226529  0.59817359    -0.55100
C1620       C  0.19098625  0.77958733  0.46866286     0.78700
O1621       O  0.16912770  0.82942893  0.55277122    -0.57400
O1622       O  0.21777052  0.83060414  0.49350347    -0.55900
O1623       O  0.18020241  0.77497922  0.57498961    -0.55900
O1624       O  0.20907531  0.77924790  0.48839288    -0.55100
O1625       O  0.74315979  0.17485879  0.55365262    -0.56300
C1626       C  0.70498117  0.21886817  0.61922181     0.76400
O1627       O  0.68674497  0.20031495  0.49026461    -0.57400
C1628       C  0.74166080  0.16384340  0.51911271     0.76300
C1629       C  0.67800466  0.15419878  0.59980953     0.78700
Cd1630     Cd  0.70497932  0.18543765  0.55636488     1.37500
O1631       O  0.72154834  0.20671687  0.61458662    -0.56300
O1632       O  0.69764613  0.15760331  0.61049410    -0.55100
C1633       C  0.69979045  0.21648689  0.48826691     0.78700
O1634       O  0.67088690  0.16456822  0.56686265    -0.57400
O1635       O  0.68825707  0.21439456  0.59675330    -0.55900
O1636       O  0.72258881  0.16139382  0.50393537    -0.55900
O1637       O  0.71436509  0.21762142  0.51720129    -0.55100
O1638       O  0.61127722  0.02946584  0.74110370    -0.56300
C1639       C  0.56320231  0.06605218  0.66440762     0.76400
O1640       O  0.57214301  0.08082807  0.79472435    -0.57400
C1641       C  0.61948081  0.03293072  0.77837084     0.76300
C1642       C  0.62374089  0.09580222  0.70085835     0.78700
Cd1643     Cd  0.59339067  0.06523187  0.73479363     1.37500
O1644       O  0.57496422  0.04923327  0.67105949    -0.56300
O1645       O  0.62260096  0.07625196  0.68784788    -0.55100
C1646       C  0.55879341  0.06487954  0.79518224     0.78700
O1647       O  0.61143154  0.10114160  0.73198296    -0.57400
O1648       O  0.56664885  0.08231464  0.68861088    -0.55900
O1649       O  0.61645757  0.05185581  0.79350615    -0.55900
O1650       O  0.56206352  0.04953999  0.76877836    -0.55100
O1651       O  0.73982722  0.81124035  0.61329339    -0.56300
C1652       C  0.69264867  0.77168773  0.07079982     0.76400
O1653       O  0.67720454  0.79730495  0.67663057    -0.57400
C1654       C  0.74031465  0.82566718  0.64254229     0.76300
C1655       C  0.67602983  0.83990109  0.56712454     0.78700
Cd1656     Cd  0.70019914  0.80694999  0.61278779     1.37500
O1657       O  0.71187394  0.77933070  0.07370188    -0.56300
O1658       O  0.69479064  0.83391560  0.55549120    -0.55100
C1659       C  0.69087917  0.78340689  0.69084957     0.78700
O1660       O  0.66871402  0.83116839  0.60142542    -0.57400
O1661       O  0.67814062  0.78042083  0.09384869    -0.55900
O1662       O  0.72201271  0.83289853  0.65457042    -0.55900
O1663       O  0.70839295  0.78149825  0.67007254    -0.55100
O1664       O  0.61629450  0.96380692  0.92097512    -0.56300
C1665       C  0.55928608  0.92598701  0.48973634     0.76400
O1666       O  0.58432906  0.91018617  0.86402165    -0.57400
C1667       C  0.62698898  0.96004811  0.88667480     0.76300
C1668       C  0.62386508  0.90105003  0.46592390     0.78700
Cd1669     Cd  0.60247206  0.92677676  0.92789622     1.37500
O1670       O  0.57078791  0.94316846  0.48555563    -0.56300
O1671       O  0.62063795  0.92053049  0.47789003    -0.55100
C1672       C  0.56992742  0.92516555  0.86240356     0.78700
O1673       O  0.62245562  0.89265564  0.93897477    -0.57400
O1674       O  0.56393902  0.91013976  0.46546361    -0.55900
O1675       O  0.62816306  0.94027188  0.87496641    -0.55900
O1676       O  0.57178480  0.94068356  0.88907791    -0.55100
O1677       O  0.94187068  0.97475666  0.95685716    -0.56300
C1678       C  0.99143241  0.93854289  0.88255744     0.76400
O1679       O  0.97984511  0.92195169  0.00722802    -0.57400
C1680       C  0.93541715  0.94158091  0.52102999     0.76300
C1681       C  0.93067840  0.90672357  0.91091164     0.78700
Cd1682     Cd  0.95916543  0.93872519  0.94732287     1.37500
O1683       O  0.97964213  0.95549318  0.88700483    -0.56300
O1684       O  0.93248108  0.92569866  0.89451235    -0.55100
C1685       C  0.99928763  0.91924524  0.52910519     0.78700
O1686       O  0.94100372  0.90308365  0.94601924    -0.57400
O1687       O  0.98664437  0.92203332  0.90540028    -0.55900
O1688       O  0.93997705  0.92180605  0.52909702    -0.55900
O1689       O  0.98991955  0.95408042  0.98573880    -0.55100
O1690       O  0.81745418  0.81339055  0.77654799    -0.56300
C1691       C  0.85402354  0.77101363  0.85275933     0.76400
O1692       O  0.87863556  0.78489877  0.73128950    -0.57400
C1693       C  0.81974739  0.82241463  0.73978892     0.76300
C1694       C  0.88068580  0.83808315  0.82585799     0.78700
Cd1695     Cd  0.85573521  0.80343762  0.78657209     1.37500
O1696       O  0.83787752  0.78355515  0.84581028    -0.56300
O1697       O  0.86196707  0.83259865  0.83899836    -0.55100
C1698       C  0.86545158  0.76889091  0.72807456     0.78700
O1699       O  0.88788772  0.82768295  0.79351623    -0.57400
O1700       O  0.87128020  0.77538054  0.83229222    -0.55900
O1701       O  0.83911038  0.82402424  0.72621262    -0.55900
O1702       O  0.84809562  0.77003486  0.74961047    -0.55100
O1703       O  0.93892628  0.99746984  0.68732303    -0.56300
C1704       C  0.99113149  0.02808650  0.76057436     0.76400
O1705       O  0.97567955  0.05219712  0.64016135    -0.57400
C1706       C  0.93045521  0.00312023  0.65122700     0.76300
C1707       C  0.92950503  0.06462396  0.73835554     0.78700
Cd1708     Cd  0.95700089  0.03283368  0.69870421     1.37500
O1709       O  0.97598533  0.01387824  0.75996670    -0.56300
O1710       O  0.92859161  0.04448992  0.74792307    -0.55100
C1711       C  0.98792704  0.03603869  0.63175319     0.78700
O1712       O  0.94275812  0.06994883  0.70877899    -0.57400
O1713       O  0.98944276  0.04399015  0.73458534    -0.55900
O1714       O  0.93263089  0.02300466  0.64070730    -0.55900
O1715       O  0.98487511  0.01857205  0.65299837    -0.55100
O1716       O  0.81254610  0.15444650  0.87196248    -0.56300
C1717       C  0.85578623  0.19624505  0.80788518     0.76400
O1718       O  0.87445588  0.17630017  0.93078801    -0.57400
C1719       C  0.81341215  0.14282002  0.90610154     0.76300
C1720       C  0.87750940  0.12894282  0.82908393     0.78700
Cd1721     Cd  0.85191503  0.16189641  0.86969065     1.37500
O1722       O  0.83848699  0.18484435  0.80927441    -0.56300
O1723       O  0.86045300  0.13669602  0.81166004    -0.55100
C1724       C  0.86057360  0.19094343  0.93986129     0.78700
O1725       O  0.88238557  0.13581345  0.86663614    -0.57400
O1726       O  0.87107573  0.19092307  0.83345392    -0.55900
O1727       O  0.83227715  0.13791420  0.91983208    -0.55900
O1728       O  0.84331314  0.19128224  0.91736010    -0.55100
C1729       C  0.89108043  0.11269974  0.80616796    -0.03800
C1730       C  0.89651142  0.11603429  0.76216996    -0.00900
C1731       C  0.90871141  0.10024620  0.73975944     0.04100
C1732       C  0.91604228  0.08112298  0.76139460    -0.03800
C1733       C  0.91073468  0.07798940  0.80564703    -0.00900
C1734       C  0.89827749  0.09364266  0.82778103     0.04100
C1735       C  0.89013330  0.13607507  0.74008554     0.38700
C1736       C  0.91827992  0.05877865  0.82900422     0.38700
C1737       C  0.89227347  0.08971148  0.87255829     0.37100
C1738       C  0.91296069  0.10347473  0.69396390     0.37100
N1739       N  0.88745558  0.08651755  0.90821204    -0.37700
N1740       N  0.91623960  0.10605412  0.65741559    -0.37700
N1741       N  0.92421543  0.04334851  0.84737548    -0.37100
N1742       N  0.88517938  0.15206698  0.72242477    -0.37100
C1743       C  0.92437671  0.95566648  0.55368378    -0.03800
C1744       C  0.91888613  0.97751452  0.54334231    -0.00900
C1745       C  0.91696051  0.99308478  0.57654088     0.04100
C1746       C  0.92111336  0.98687837  0.62018348    -0.03800
C1747       C  0.92096986  0.96440834  0.63072701    -0.00900
C1748       C  0.92271200  0.94873025  0.59761997     0.04100
C1749       C  0.91618606  0.98441451  0.49849575     0.38700
C1750       C  0.91980861  0.95730000  0.67567148     0.38700
C1751       C  0.92406191  0.92582304  0.60952986     0.37100
C1752       C  0.91170766  0.01550049  0.56526755     0.37100
N1753       N  0.92514214  0.90755179  0.61947807    -0.37700
N1754       N  0.90746522  0.03339519  0.55604084    -0.37700
N1755       N  0.91878402  0.95157939  0.71133983    -0.37100
N1756       N  0.93101676  0.02343677  0.93597664    -0.37100
C1757       C  0.91760655  0.88940047  0.88924062    -0.03800
C1758       C  0.91927729  0.88630807  0.84400178    -0.00900
C1759       C  0.90677087  0.87004329  0.82315622     0.04100
C1760       C  0.89345160  0.85574283  0.84761745    -0.03800
C1761       C  0.89237590  0.85842290  0.89316602    -0.00900
C1762       C  0.90399161  0.87545598  0.91363847     0.04100
C1763       C  0.93476470  0.89906338  0.81899192     0.38700
C1764       C  0.88000134  0.84319987  0.91958152     0.38700
C1765       C  0.90156065  0.87886362  0.95984533     0.37100
C1766       C  0.90715397  0.86862147  0.77626370     0.37100
N1767       N  0.91047567  0.85274397  0.50726334    -0.37700
N1768       N  0.90735503  0.86764708  0.73884523    -0.37700
N1769       N  0.87028296  0.83103909  0.94086426    -0.37100
N1770       N  0.94730707  0.90901302  0.79913900    -0.37100
C1771       C  0.76117364  0.83189092  0.66445119    -0.03800
C1772       C  0.76134447  0.83705641  0.70910225    -0.00900
C1773       C  0.78080110  0.83530947  0.73345719     0.04100
C1774       C  0.80050378  0.82934740  0.71314014    -0.03800
C1775       C  0.80087965  0.82776731  0.66731475    -0.00900
C1776       C  0.78128445  0.82903104  0.64316822     0.04100
C1777       C  0.74138686  0.84306659  0.73095387     0.38700
C1778       C  0.82104818  0.82326821  0.64479571     0.38700
C1779       C  0.78188071  0.82712043  0.59633539     0.37100
C1780       C  0.78018116  0.83892232  0.77985786     0.37100
N1781       N  0.78249886  0.82567763  0.55900367    -0.37700
N1782       N  0.77944309  0.84162340  0.81688138    -0.37700
N1783       N  0.83707312  0.81967570  0.62665571    -0.37100
N1784       N  0.72550196  0.84791302  0.74840547    -0.37100
C1785       C  0.63807048  0.88606338  0.49149522    -0.03800
C1786       C  0.65941934  0.86935548  0.98280291    -0.00900
C1787       C  0.67077563  0.85449945  0.00966058     0.04100
C1788       C  0.66320282  0.85602591  0.54124912    -0.03800
C1789       C  0.64968030  0.87135949  0.56202369    -0.00900
C1790       C  0.63738207  0.88643110  0.53734695     0.04100
C1791       C  0.66276584  0.86901990  0.93630326     0.38700
C1792       C  0.64828066  0.87176589  0.60894040     0.38700
C1793       C  0.62317879  0.90162432  0.55950245     0.37100
C1794       C  0.68401334  0.83776626  0.98960860     0.37100
N1795       N  0.61186333  0.91373185  0.57712360    -0.37700
N1796       N  0.69451942  0.82443433  0.97352391    -0.37700
N1797       N  0.64693172  0.87205407  0.64630217    -0.37100
N1798       N  0.66554693  0.86880324  0.89927546    -0.37100
C1799       C  0.63029724  0.01521197  0.80454062    -0.03800
C1800       C  0.63443353  0.01790626  0.84958425    -0.00900
C1801       C  0.63720613  0.99941038  0.87653076     0.04100
C1802       C  0.63522477  0.97828522  0.85902692    -0.03800
C1803       C  0.63632038  0.97587157  0.81351670    -0.00900
C1804       C  0.63392433  0.99434008  0.78631325     0.04100
C1805       C  0.63481988  0.03937784  0.86920181     0.38700
C1806       C  0.63863267  0.95443106  0.79424963     0.38700
C1807       C  0.63450527  0.99153587  0.73970220     0.37100
C1808       C  0.64154009  0.00205456  0.92249761     0.37100
N1809       N  0.63502447  0.98916091  0.70256596    -0.37700
N1810       N  0.64515947  0.00409259  0.95909279    -0.37700
N1811       N  0.64055838  0.93737909  0.77873901    -0.37100
N1812       N  0.63514666  0.05639450  0.88534312    -0.37100
C1813       C  0.79334892  0.13740081  0.93100926    -0.03800
C1814       C  0.79365031  0.13819292  0.97683549    -0.00900
C1815       C  0.77402235  0.14054513  0.99982545     0.04100
C1816       C  0.75393542  0.14254497  0.97724774    -0.03800
C1817       C  0.75346878  0.13798372  0.93218204    -0.00900
C1818       C  0.77313984  0.13516448  0.90940556     0.04100
C1819       C  0.81413648  0.13813022  0.00063694     0.38700
C1820       C  0.73304388  0.13726930  0.90828658     0.38700
C1821       C  0.77262052  0.12996923  0.86361550     0.37100
C1822       C  0.78219000  0.15427534  0.56598860     0.37100
N1823       N  0.77218858  0.12554094  0.82723081    -0.37700
N1824       N  0.78278515  0.15469297  0.60345328    -0.37700
N1825       N  0.71682884  0.13665325  0.88895935    -0.37100
N1826       N  0.83041380  0.13812274  0.01979257    -0.37100
C1827       C  0.66406756  0.13924274  0.62580318    -0.03800
C1828       C  0.67268807  0.11941781  0.64240819    -0.00900
C1829       C  0.65980001  0.10568874  0.66864842     0.04100
C1830       C  0.63823192  0.11165865  0.67878760    -0.03800
C1831       C  0.62984783  0.13179403  0.66359130    -0.00900
C1832       C  0.64260048  0.14541021  0.63678665     0.04100
C1833       C  0.69464679  0.11270138  0.63158830     0.38700
C1834       C  0.60787392  0.13834139  0.67465442     0.38700
C1835       C  0.63366080  0.16600372  0.62139404     0.37100
C1836       C  0.66894087  0.08556295  0.68603080     0.37100
N1837       N  0.62642133  0.18237467  0.60910393    -0.37700
N1838       N  0.67623171  0.06955180  0.69999582    -0.37700
N1839       N  0.59041057  0.14362394  0.68376213    -0.37100
N1840       N  0.71215653  0.10729939  0.62310574    -0.37100
C1841       C  0.04805154  0.93711885  0.80037834    -0.03800
C1842       C  0.04786254  0.92539318  0.83991267    -0.00900
C1843       C  0.02950470  0.92620253  0.86683019     0.04100
C1844       C  0.01063496  0.93790918  0.85364816    -0.03800
C1845       C  0.01035698  0.94869425  0.81315252    -0.00900
C1846       C  0.02909148  0.94870860  0.78697429     0.04100
C1847       C  0.06664027  0.91261397  0.85361264     0.38700
C1848       C  0.99037947  0.95861174  0.79710565     0.38700
C1849       C  0.02826996  0.95985707  0.74529575     0.37100
C1850       C  0.03051511  0.91536379  0.90882220     0.37100
N1851       N  0.02748233  0.96872087  0.71208706    -0.37700
N1852       N  0.03143504  0.90673954  0.94225659    -0.37700
N1853       N  0.97433944  0.96618013  0.78407513    -0.37100
N1854       N  0.08146004  0.90219579  0.86439374    -0.37100
C1855       C  0.01786914  0.92185792  0.55937901    -0.03800
C1856       C  0.03701758  0.93253649  0.54515674    -0.00900
C1857       C  0.05410927  0.93693742  0.57451856     0.04100
C1858       C  0.05239092  0.93025364  0.61814665    -0.03800
C1859       C  0.03319054  0.91949159  0.63235900    -0.00900
C1860       C  0.01600489  0.91536577  0.60306100     0.04100
C1861       C  0.03953216  0.93825972  0.49976760     0.38700
C1862       C  0.03069660  0.91307133  0.67745474     0.38700
C1863       C  0.99609262  0.90517841  0.61840706     0.37100
C1864       C  0.07376266  0.94761045  0.55929186     0.37100
N1865       N  0.98026762  0.89708048  0.63090320    -0.37700
N1866       N  0.08942939  0.95614842  0.54717233    -0.37700
N1867       N  0.02860379  0.90778074  0.71324250    -0.37100
N1868       N  0.03957973  0.96150547  0.95719707    -0.37100
C1869       C  0.16543865  0.85540169  0.61022183    -0.03800
C1870       C  0.17572054  0.87545723  0.61983051    -0.00900
C1871       C  0.16500836  0.89105877  0.64531045     0.04100
C1872       C  0.14367224  0.88700346  0.66009633    -0.03800
C1873       C  0.13331439  0.86696537  0.65023192    -0.00900
C1874       C  0.14418858  0.85120476  0.62536082     0.04100
C1875       C  0.19679905  0.88059298  0.60132450     0.38700
C1876       C  0.11111121  0.86286161  0.66403979     0.38700
C1877       C  0.13345806  0.83067343  0.61536587     0.37100
C1878       C  0.17614743  0.91110475  0.65712186     0.37100
N1879       N  0.12481051  0.81438471  0.60716981    -0.37700
N1880       N  0.18508938  0.92701497  0.66685215    -0.37700
N1881       N  0.09339827  0.85955909  0.67491355    -0.37100
N1882       N  0.21345453  0.88479245  0.58601871    -0.37100
C1883       C  0.27376608  0.82305571  0.88309011    -0.03800
C1884       C  0.26025867  0.80431629  0.88208213    -0.00900
C1885       C  0.24004350  0.80443212  0.90299387     0.04100
C1886       C  0.25628334  0.83244458  0.47807749    -0.03800
C1887       C  0.24648754  0.84187329  0.92673787    -0.00900
C1888       C  0.26651758  0.84207663  0.90444198     0.04100
C1889       C  0.26787111  0.78405133  0.86325903     0.38700
C1890       C  0.23305409  0.83912475  0.41262896     0.38700
C1891       C  0.27961668  0.86181192  0.90337620     0.37100
C1892       C  0.22656499  0.78489851  0.90226188     0.37100
N1893       N  0.29004211  0.87757775  0.90225937    -0.37700
N1894       N  0.28194809  0.83160078  0.58103512    -0.37700
N1895       N  0.21617364  0.84146732  0.39631193    -0.37100
N1896       N  0.27383287  0.76769845  0.84900259    -0.37100
C1897       C  0.54070019  0.92445742  0.52026136    -0.03800
C1898       C  0.53646895  0.90474049  0.54312342    -0.00900
C1899       C  0.51854115  0.90324004  0.57147441     0.04100
C1900       C  0.50438416  0.92122350  0.57623781    -0.03800
C1901       C  0.50754645  0.94011611  0.55045568    -0.00900
C1902       C  0.52606140  0.94212474  0.52410446     0.04100
C1903       C  0.55107132  0.88623224  0.53904358     0.38700
C1904       C  0.49115644  0.95721618  0.54968039     0.38700
C1905       C  0.52969655  0.96237690  0.50049803     0.37100
C1906       C  0.51521073  0.88344068  0.59666095     0.37100
N1907       N  0.53255004  0.97859876  0.48190359    -0.37700
N1908       N  0.51266471  0.86754467  0.61650616    -0.37700
N1909       N  0.47788594  0.97062117  0.54863500    -0.37100
N1910       N  0.56268503  0.87147167  0.53561062    -0.37100
C1911       C  0.51471992  0.92740010  0.77544414    -0.03800
C1912       C  0.51199659  0.93080968  0.82014604    -0.00900
C1913       C  0.53000400  0.92920364  0.84843272     0.04100
C1914       C  0.55103436  0.92470869  0.83224623    -0.03800
C1915       C  0.55374658  0.92096326  0.78758626    -0.00900
C1916       C  0.53566366  0.92247433  0.75919600     0.04100
C1917       C  0.49049985  0.93500868  0.83753344     0.38700
C1918       C  0.57510122  0.91579485  0.77067412     0.38700
C1919       C  0.53878033  0.91969035  0.71299188     0.37100
C1920       C  0.52649056  0.93074794  0.89470228     0.37100
N1921       N  0.54125513  0.91754665  0.67613849    -0.37700
N1922       N  0.52335247  0.93167040  0.93151479    -0.37700
N1923       N  0.59206133  0.91147164  0.75705313    -0.37100
N1924       N  0.47343221  0.93832133  0.85172782    -0.37100
C1925       C  0.41350763  0.88619540  0.75185420    -0.03800
C1926       C  0.39241426  0.89358610  0.76258538    -0.00900
C1927       C  0.37824733  0.87998998  0.78646887     0.04100
C1928       C  0.38508677  0.85897236  0.79997608    -0.03800
C1929       C  0.40657355  0.85207757  0.79123293    -0.00900
C1930       C  0.42061357  0.86552944  0.76685903     0.04100
C1931       C  0.38493307  0.91488394  0.74794439     0.38700
C1932       C  0.41419003  0.83087906  0.80624263     0.38700
C1933       C  0.44261790  0.85822921  0.75802948     0.37100
C1934       C  0.35676936  0.88784126  0.79808205     0.37100
N1935       N  0.46016513  0.85244720  0.75093029    -0.37700
N1936       N  0.33967593  0.89405910  0.80762120    -0.37700
N1937       N  0.42036724  0.81406054  0.81844997    -0.37100
N1938       N  0.37881534  0.93184187  0.73640832    -0.37100
C1939       C  0.04450026  0.03939083  0.84617992    -0.03800
C1940       C  0.02395344  0.03356551  0.86328089    -0.00900
C1941       C  0.00686764  0.02711648  0.83538287     0.04100
C1942       C  0.01005298  0.02724139  0.79029706    -0.03800
C1943       C  0.03105500  0.03126423  0.77351113    -0.00900
C1944       C  0.04822219  0.03740582  0.80136704     0.04100
C1945       C  0.01964128  0.03615426  0.90903599     0.38700
C1946       C  0.03495849  0.02921838  0.72737666     0.38700
C1947       C  0.06963083  0.04184531  0.78373972     0.37100
C1948       C  0.98565385  0.02173357  0.85288216     0.37100
N1949       N  0.08661895  0.04541085  0.76931192    -0.37700
N1950       N  0.96876618  0.01730347  0.86684890    -0.37700
N1951       N  0.03820604  0.02749539  0.69068483    -0.37100
N1952       N  0.01567753  0.03854557  0.94525226    -0.37100
C1953       C  0.04222089  0.03816347  0.54488645    -0.03800
C1954       C  0.03877822  0.05544966  0.57414166    -0.00900
C1955       C  0.02049791  0.05518449  0.60140099     0.04100
C1956       C  0.00575508  0.03744399  0.59999746    -0.03800
C1957       C  0.00926370  0.02011667  0.57077648    -0.00900
C1958       C  0.02727320  0.02067525  0.54284955     0.04100
C1959       C  0.05439769  0.07322962  0.57717892     0.38700
C1960       C  0.99407238  0.00192585  0.56856623     0.38700
C1961       C  0.02963068  0.00401149  0.51001514     0.37100
C1962       C  0.01750662  0.07267076  0.63236712     0.37100
N1963       N  0.03140540  0.99107074  0.48313450    -0.37700
N1964       N  0.01510034  0.08656611  0.65712429    -0.37700
N1965       N  0.98204184  0.98736684  0.56684759    -0.37100
N1966       N  0.06684309  0.08739160  0.57983170    -0.37100
C1967       C  0.13796124  0.98588193  0.78754334    -0.03800
C1968       C  0.14344880  0.98066388  0.83119133    -0.00900
C1969       C  0.14250559  0.99692673  0.86329766     0.04100
C1970       C  0.13717380  0.01863075  0.85164688    -0.03800
C1971       C  0.13793923  0.02457992  0.80718514    -0.00900
C1972       C  0.13763009  0.00820837  0.77517756     0.04100
C1973       C  0.14906015  0.95850124  0.84392713     0.38700
C1974       C  0.13785660  0.04738607  0.79391482     0.38700
C1975       C  0.13582985  0.01459659  0.72994816     0.37100
C1976       C  0.14608218  0.99099150  0.90838863     0.37100
N1977       N  0.13427939  0.01996535  0.69405268    -0.37700
N1978       N  0.14883409  0.98616138  0.94430955    -0.37700
N1979       N  0.13777466  0.06555602  0.78324047    -0.37100
N1980       N  0.15357764  0.94087193  0.85436356    -0.37100
C1981       C  0.15169639  0.11887349  0.58005193    -0.03800
C1982       C  0.16096202  0.09830510  0.57111160    -0.00900
C1983       C  0.15472381  0.10402869  0.01362856     0.04100
C1984       C  0.13007949  0.08949366  0.52382195    -0.03800
C1985       C  0.12077838  0.11012083  0.53291011    -0.00900
C1986       C  0.13136470  0.12455550  0.56166252     0.04100
C1987       C  0.18498865  0.11326279  0.06339506     0.38700
C1988       C  0.10030216  0.11662775  0.51293268     0.38700
C1989       C  0.12178783  0.14568778  0.57083332     0.37100
C1990       C  0.16637715  0.08426176  0.00224378     0.37100
N1991       N  0.11418830  0.16251836  0.57839491    -0.37700
N1992       N  0.17570376  0.06855530  0.99306021    -0.37700
N1993       N  0.08406401  0.12203909  0.49691314    -0.37100
N1994       N  0.20161577  0.10887098  0.07905156    -0.37100
C1995       C  0.54007590  0.06373001  0.82500692    -0.03800
C1996       C  0.54320780  0.06655130  0.86991877    -0.00900
C1997       C  0.52559919  0.06368607  0.89845894     0.04100
C1998       C  0.50481997  0.05774310  0.88222387    -0.03800
C1999       C  0.50174022  0.05473395  0.83735409    -0.00900
C2000       C  0.51923093  0.05800074  0.80878922     0.04100
C2001       C  0.56478640  0.07124755  0.88701283     0.38700
C2002       C  0.48045019  0.04872411  0.82036217     0.38700
C2003       C  0.51550907  0.05612413  0.76248987     0.37100
C2004       C  0.52920050  0.06572189  0.94477501     0.37100
N2005       N  0.51232366  0.05473597  0.72563552    -0.37700
N2006       N  0.53219746  0.06720554  0.98168527    -0.37700
N2007       N  0.46350331  0.04381563  0.80689272    -0.37100
N2008       N  0.58203761  0.07486268  0.90056074    -0.37100
C2009       C  0.50638954  0.07075768  0.58244617    -0.03800
C2010       C  0.51188772  0.05057429  0.60231431    -0.00900
C2011       C  0.53120862  0.04854717  0.62688989     0.04100
C2012       C  0.54520856  0.06672499  0.63198386    -0.03800
C2013       C  0.54019681  0.08656643  0.61029167    -0.00900
C2014       C  0.50696565  0.08156882  0.07792155     0.04100
C2015       C  0.49728760  0.03194214  0.59868768     0.38700
C2016       C  0.55587461  0.10432560  0.60978938     0.38700
C2017       C  0.50313133  0.09896735  0.04658152     0.37100
C2018       C  0.53618123  0.02783887  0.64788911     0.37100
N2019       N  0.50011295  0.11270183  0.02131293    -0.37700
N2020       N  0.54004912  0.01126558  0.66446601    -0.37700
N2021       N  0.55107254  0.11640251  0.10152746    -0.37100
N2022       N  0.48566753  0.01710704  0.59571892    -0.37100
C2023       C  0.42793219  0.98143469  0.61977043    -0.03800
C2024       C  0.42748887  0.00260766  0.63780469    -0.00900
C2025       C  0.42677681  0.02116735  0.61054341     0.04100
C2026       C  0.42594301  0.01863117  0.56491952    -0.03800
C2027       C  0.42210638  0.99762148  0.54778077    -0.00900
C2028       C  0.42296287  0.97906770  0.57508029     0.04100
C2029       C  0.42787902  0.00542643  0.68444479     0.38700
C2030       C  0.41775650  0.99498313  0.50182840     0.38700
C2031       C  0.41950710  0.95765154  0.55632387     0.37100
C2032       C  0.42842786  0.04268714  0.62988086     0.37100
N2033       N  0.41656543  0.94064287  0.54118165    -0.37700
N2034       N  0.42975166  0.05981446  0.64536841    -0.37700
N2035       N  0.43028439  0.97019891  0.92899930    -0.37100
N2036       N  0.42797814  0.00784614  0.72159954    -0.37100
C2037       C  0.28961906  0.14507882  0.73310034    -0.03800
C2038       C  0.27064363  0.13973782  0.75676405    -0.00900
C2039       C  0.25034034  0.13792410  0.73526627     0.04100
C2040       C  0.24902331  0.14107219  0.68978815    -0.03800
C2041       C  0.26855191  0.14139085  0.66582534    -0.00900
C2042       C  0.28873648  0.14392766  0.68721828     0.04100
C2043       C  0.27181610  0.13642153  0.80332129     0.38700
C2044       C  0.26792633  0.13981041  0.61890606     0.38700
C2045       C  0.30815406  0.14674941  0.66122467     0.37100
C2046       C  0.23092270  0.13373258  0.76056695     0.37100
N2047       N  0.32348171  0.14902978  0.64005915    -0.37700
N2048       N  0.21554098  0.13030914  0.78100186    -0.37700
N2049       N  0.26742900  0.13854339  0.58152546    -0.37100
N2050       N  0.27265308  0.13364840  0.84041503    -0.37100
C2051       C  0.41007536  0.09645278  0.89434715    -0.03800
C2052       C  0.39031783  0.09026431  0.87420858    -0.00900
C2053       C  0.37937854  0.10506563  0.84661827     0.04100
C2054       C  0.38800831  0.12617566  0.83937632    -0.03800
C2055       C  0.40847696  0.13183398  0.85712935    -0.00900
C2056       C  0.41939704  0.11707747  0.88490428     0.04100
C2057       C  0.38055465  0.06918536  0.88378364     0.38700
C2058       C  0.41790639  0.15316245  0.84847334     0.38700
C2059       C  0.44027449  0.12315410  0.90374686     0.37100
C2060       C  0.35910912  0.09863679  0.82573639     0.37100
N2061       N  0.45686908  0.12794933  0.91900998    -0.37700
N2062       N  0.34297919  0.09355860  0.80893910    -0.37700
N2063       N  0.42557683  0.17009975  0.84151742    -0.37100
N2064       N  0.37265194  0.05244991  0.89159330    -0.37100
C2065       C  0.86399806  0.20760010  0.97400317    -0.03800
C2066       C  0.84621088  0.21396826  0.99992196    -0.00900
C2067       C  0.84796326  0.23224638  0.02711670     0.04100
C2068       C  0.86727526  0.24483733  0.02772589    -0.03800
C2069       C  0.88541689  0.23796845  0.00328870    -0.00900
C2070       C  0.88390430  0.21916565  0.97712582     0.04100
C2071       C  0.82589642  0.20177110  0.99870099     0.38700
C2072       C  0.90527127  0.25089346  0.00297515     0.38700
C2073       C  0.90248596  0.21260611  0.95152038     0.37100
C2074       C  0.82998173  0.23764441  0.05545972     0.37100
N2075       N  0.91736464  0.20747214  0.93117032    -0.37700
N2076       N  0.81573544  0.24185874  0.07827658    -0.37700
N2077       N  0.92106377  0.26125007  0.00247098    -0.37100
N2078       N  0.80956510  0.19230944  0.99766097    -0.37100
C2079       C  0.86282560  0.25218408  0.72390699    -0.03800
C2080       C  0.85505773  0.23211731  0.70707716    -0.00900
C2081       C  0.85261769  0.21379112  0.73445401     0.04100
C2082       C  0.85817168  0.21533339  0.77870429    -0.03800
C2083       C  0.86662108  0.23517305  0.79518325    -0.00900
C2084       C  0.86933302  0.25339669  0.76768179     0.04100
C2085       C  0.85023940  0.22999667  0.66120582     0.38700
C2086       C  0.87116053  0.23741591  0.84113381     0.38700
C2087       C  0.87810114  0.27359832  0.78498734     0.37100
C2088       C  0.84468592  0.19329624  0.71683193     0.37100
N2089       N  0.88528067  0.28962747  0.79878417    -0.37700
N2090       N  0.83831413  0.17701094  0.70265027    -0.37700
N2091       N  0.87457002  0.23942738  0.87778980    -0.37100
N2092       N  0.84649397  0.22796855  0.62467772    -0.37100
C2093       C  0.89707954  0.35834785  0.58057270    -0.03800
C2094       C  0.88991698  0.37988934  0.57196392    -0.00900
C2095       C  0.90164734  0.39343101  0.54305215     0.04100
C2096       C  0.91989774  0.38503631  0.52103809    -0.03800
C2097       C  0.92667400  0.36328414  0.52927252    -0.00900
C2098       C  0.91601651  0.35049278  0.56053590     0.04100
C2099       C  0.87073883  0.38820058  0.59352884     0.38700
C2100       C  0.94447731  0.35371062  0.50519281     0.38700
C2101       C  0.92448749  0.32904409  0.57166871     0.37100
C2102       C  0.89421823  0.41550331  0.53425669     0.37100
N2103       N  0.93153425  0.31218529  0.58140953    -0.37700
N2104       N  0.88817912  0.43308693  0.52723603    -0.37700
N2105       N  0.95848222  0.34594275  0.48570327    -0.37100
N2106       N  0.85547322  0.39479779  0.61088957    -0.37100
C2107       C  0.93399145  0.46257981  0.86738904    -0.03800
C2108       C  0.93165525  0.48495159  0.87779540    -0.00900
C2109       C  0.92655275  0.50017285  0.84482592     0.04100
C2110       C  0.92554254  0.49318427  0.80126470    -0.03800
C2111       C  0.92207156  0.47076082  0.79329459    -0.00900
C2112       C  0.92611987  0.45536743  0.82655282     0.04100
C2113       C  0.93599310  0.49264583  0.92138358     0.38700
C2114       C  0.91573366  0.46338320  0.75044498     0.38700
C2115       C  0.92373902  0.43228853  0.81719150     0.37100
C2116       C  0.92363352  0.52303627  0.85549475     0.37100
N2117       N  0.92174332  0.41391427  0.80942191    -0.37700
N2118       N  0.92114004  0.54122985  0.86416730    -0.37700
N2119       N  0.91071390  0.45746044  0.71626852    -0.37100
N2120       N  0.93967326  0.49892023  0.95596262    -0.37100
C2121       C  0.86872070  0.71312667  0.64455876    -0.03800
C2122       C  0.87674421  0.73358257  0.62997057    -0.00900
C2123       C  0.87687594  0.75175147  0.65787059     0.04100
C2124       C  0.86945430  0.74944521  0.70077214    -0.03800
C2125       C  0.86367330  0.72842232  0.71649182    -0.00900
C2126       C  0.86305771  0.71040874  0.68838003     0.04100
C2127       C  0.88378815  0.73637971  0.58554347     0.38700
C2128       C  0.85864160  0.72504775  0.76185244     0.38700
C2129       C  0.85696995  0.68898367  0.70487297     0.37100
C2130       C  0.88333184  0.77302717  0.64139600     0.37100
N2131       N  0.85217847  0.67195053  0.71828053    -0.37700
N2132       N  0.88845496  0.78995602  0.62798352    -0.37700
N2133       N  0.85472574  0.72179277  0.79789232    -0.37100
N2134       N  0.88951476  0.73869629  0.55019995    -0.37100
C2135       C  0.86206356  0.71086931  0.44679173    -0.03800
C2136       C  0.88096084  0.72282944  0.43621315    -0.00900
C2137       C  0.87148306  0.74289449  0.90207315     0.04100
C2138       C  0.85260062  0.75125655  0.88103436    -0.03800
C2139       C  0.83292501  0.73911793  0.88292357    -0.00900
C2140       C  0.84195608  0.71616142  0.42667357     0.04100
C2141       C  0.90152619  0.71794871  0.45761819     0.38700
C2142       C  0.81393002  0.74584244  0.85788505     0.38700
C2143       C  0.82252105  0.70341163  0.43590206     0.37100
C2144       C  0.89196879  0.75474874  0.90043576     0.37100
N2145       N  0.80693457  0.69342623  0.44318982    -0.37700
N2146       N  0.90836104  0.76409171  0.89909740    -0.37700
N2147       N  0.79880496  0.75101936  0.83772196    -0.37100
N2148       N  0.91794434  0.71420880  0.47475982    -0.37100
C2149       C  0.89729921  0.61391903  0.61387410    -0.03800
C2150       C  0.88698173  0.59641395  0.63582685    -0.00900
C2151       C  0.89921422  0.58222994  0.66240687     0.04100
C2152       C  0.92193801  0.58503230  0.66661219    -0.03800
C2153       C  0.93219903  0.60300932  0.64634486    -0.00900
C2154       C  0.92002480  0.61710863  0.61916687     0.04100
C2155       C  0.86395649  0.59202455  0.62907174     0.38700
C2156       C  0.95541467  0.60663160  0.65220575     0.38700
C2157       C  0.93109922  0.63460668  0.59621602     0.37100
C2158       C  0.88834169  0.56469135  0.68573017     0.37100
N2159       N  0.94010035  0.64831282  0.57750380    -0.37700
N2160       N  0.87971708  0.55073635  0.70441962    -0.37700
N2161       N  0.97389355  0.60961338  0.65707601    -0.37100
N2162       N  0.84564792  0.58838433  0.62348233    -0.37100
C2163       C  0.69477689  0.22335358  0.93004519    -0.03800
C2164       C  0.71388754  0.22787021  0.90637256    -0.00900
C2165       C  0.71555090  0.24726927  0.88196549     0.04100
C2166       C  0.69830172  0.26252693  0.88186669    -0.03800
C2167       C  0.67847239  0.25709057  0.90240618    -0.00900
C2168       C  0.70342822  0.25542094  0.46404818     0.04100
C2169       C  0.73188573  0.21246777  0.90710718     0.38700
C2170       C  0.71055037  0.29370692  0.44165044     0.38700
C2171       C  0.70382903  0.26246505  0.50888312     0.37100
C2172       C  0.73483282  0.25121817  0.85606594     0.37100
N2173       N  0.70418398  0.26823153  0.54450760    -0.37700
N2174       N  0.75012069  0.25428888  0.83515573    -0.37700
N2175       N  0.71306201  0.31196846  0.44987505    -0.37100
N2176       N  0.74619157  0.20016768  0.90778240    -0.37100
C2177       C  0.70475713  0.27603333  0.69971959    -0.03800
C2178       C  0.72295866  0.27146971  0.67350217    -0.00900
C2179       C  0.72314828  0.25260514  0.64759794     0.04100
C2180       C  0.70522818  0.23807199  0.64806947    -0.03800
C2181       C  0.68696974  0.24274442  0.67400886    -0.00900
C2182       C  0.68672970  0.26167079  0.69969153     0.04100
C2183       C  0.74149109  0.28625299  0.67291060     0.38700
C2184       C  0.66882965  0.22752701  0.67605519     0.38700
C2185       C  0.66850906  0.26554045  0.72834401     0.37100
C2186       C  0.74153441  0.24852657  0.61946240     0.37100
N2187       N  0.65405771  0.26859951  0.75137715    -0.37700
N2188       N  0.75607722  0.24514305  0.59684201    -0.37700
N2189       N  0.65439687  0.21537220  0.67783209    -0.37100
N2190       N  0.75632771  0.29794759  0.67231288    -0.37100
C2191       C  0.76960033  0.34724849  0.76251362    -0.03800
C2192       C  0.78898005  0.34104582  0.78457365    -0.00900
C2193       C  0.80829945  0.33761108  0.76118022     0.04100
C2194       C  0.80844400  0.34093257  0.71579421    -0.03800
C2195       C  0.79061492  0.35159209  0.69586171    -0.00900
C2196       C  0.77125525  0.35493544  0.71918521     0.04100
C2197       C  0.78905848  0.33739712  0.83107638     0.38700
C2198       C  0.79211411  0.35886478  0.65111579     0.38700
C2199       C  0.75306903  0.36569627  0.69776486     0.37100
C2200       C  0.82740089  0.32923323  0.78373044     0.37100
N2201       N  0.73873100  0.37441704  0.68034920    -0.37700
N2202       N  0.84257110  0.32262049  0.80199416    -0.37700
N2203       N  0.79342424  0.36469934  0.61549796    -0.37100
N2204       N  0.78924851  0.33446823  0.86814692    -0.37100
C2205       C  0.66727018  0.37009612  0.86703439    -0.03800
C2206       C  0.64488758  0.36583245  0.87346395    -0.00900
C2207       C  0.63202172  0.38059320  0.89715529     0.04100
C2208       C  0.64114711  0.40034973  0.91248277    -0.03800
C2209       C  0.66354691  0.40455325  0.90621881    -0.00900
C2210       C  0.67663444  0.38929942  0.88437247     0.04100
C2211       C  0.63511777  0.34601472  0.85649875     0.38700
C2212       C  0.67329616  0.42438718  0.92319680     0.38700
C2213       C  0.69970649  0.39366095  0.87901362     0.37100
C2214       C  0.60928920  0.37551801  0.90510399     0.37100
N2215       N  0.71812284  0.39713202  0.87500925    -0.37700
N2216       N  0.59121293  0.37137362  0.91177150    -0.37700
N2217       N  0.68102472  0.44021748  0.93674925    -0.37100
N2218       N  0.62724663  0.33028041  0.84283108    -0.37100
C2219       C  0.68546484  0.73258168  0.78548989    -0.03800
C2220       C  0.66764261  0.73702408  0.75741598    -0.00900
C2221       C  0.66831101  0.75521209  0.72908761     0.04100
C2222       C  0.68682977  0.76890616  0.72848906    -0.03800
C2223       C  0.70358634  0.76569079  0.75939630    -0.00900
C2224       C  0.70304322  0.74751254  0.78752484     0.04100
C2225       C  0.64921032  0.72216752  0.75551115     0.38700
C2226       C  0.72142125  0.78121955  0.76240014     0.38700
C2227       C  0.72061662  0.74432774  0.81866754     0.37100
C2228       C  0.65049625  0.75903902  0.69886211     0.37100
N2229       N  0.73467677  0.74180003  0.84336723    -0.37700
N2230       N  0.63622859  0.76211507  0.67489479    -0.37700
N2231       N  0.73562305  0.79358805  0.76529548    -0.37100
N2232       N  0.63453336  0.71029434  0.75395179    -0.37100
C2233       C  0.68089279  0.71869895  0.98316227    -0.03800
C2234       C  0.69637655  0.71653859  0.01696976    -0.00900
C2235       C  0.69938718  0.73349360  0.04689972     0.04100
C2236       C  0.68746770  0.75303952  0.04238888    -0.03800
C2237       C  0.67101658  0.75476360  0.01029940    -0.00900
C2238       C  0.66765876  0.73753805  0.98075316     0.04100
C2239       C  0.70993073  0.69719694  0.02006581     0.38700
C2240       C  0.65933123  0.75929308  0.50425741     0.38700
C2241       C  0.65191395  0.74001825  0.94579338     0.37100
C2242       C  0.71468925  0.73073154  0.08259613     0.37100
N2243       N  0.63941735  0.74206839  0.91781524    -0.37700
N2244       N  0.72677750  0.72839486  0.11118343    -0.37700
N2245       N  0.64459586  0.77104428  0.50239322    -0.37100
N2246       N  0.72106543  0.68201435  0.02258908    -0.37100
C2247       C  0.74225649  0.64127880  0.92451860    -0.03800
C2248       C  0.74313975  0.63683730  0.96956563    -0.00900
C2249       C  0.76347055  0.63589997  0.99107772     0.04100
C2250       C  0.78298112  0.63817287  0.96734687    -0.03800
C2251       C  0.78186588  0.63747527  0.92144310    -0.00900
C2252       C  0.76151319  0.63906478  0.90018771     0.04100
C2253       C  0.72335207  0.63378434  0.99429801     0.38700
C2254       C  0.80146652  0.63645435  0.89554852     0.38700
C2255       C  0.76043181  0.63859235  0.85320795     0.37100
C2256       C  0.78096386  0.62845469  0.54737146     0.37100
N2257       N  0.75954816  0.63810099  0.81576925    -0.37700
N2258       N  0.78053583  0.62420204  0.58393064    -0.37700
N2259       N  0.81697355  0.63555134  0.87453560    -0.37100
N2260       N  0.70766892  0.63118011  0.01428229    -0.37100
C2261       C  0.62900904  0.50258134  0.62251462    -0.03800
C2262       C  0.63142670  0.51159936  0.58020586    -0.00900
C2263       C  0.63427781  0.49771994  0.54435627     0.04100
C2264       C  0.63484033  0.47483942  0.55051424    -0.03800
C2265       C  0.63821498  0.46672093  0.59311033    -0.00900
C2266       C  0.63487412  0.48044578  0.62906112     0.04100
C2267       C  0.63048109  0.53501807  0.57268825     0.38700
C2268       C  0.64514566  0.44432165  0.60017088     0.38700
C2269       C  0.63731555  0.47159038  0.67250199     0.37100
C2270       C  0.63632649  0.50711150  0.50127713     0.37100
N2271       N  0.63937786  0.46449964  0.70712279    -0.37700
N2272       N  0.61662891  0.53725218  0.95435357    -0.37700
N2273       N  0.65086363  0.42651925  0.60593096    -0.37100
N2274       N  0.62983354  0.55366610  0.56630690    -0.37100
C2275       C  0.62806651  0.59033090  0.76893749    -0.03800
C2276       C  0.65073233  0.58878329  0.77621264    -0.00900
C2277       C  0.66194001  0.60595921  0.79687475     0.04100
C2278       C  0.65049666  0.62476804  0.81033332    -0.03800
C2279       C  0.62786225  0.62633161  0.80274584    -0.00900
C2280       C  0.61662189  0.60902008  0.78275223     0.04100
C2281       C  0.66261557  0.56971514  0.76172696     0.38700
C2282       C  0.61625520  0.64616291  0.81369080     0.38700
C2283       C  0.59309004  0.61008333  0.77809975     0.37100
C2284       C  0.68520396  0.60404642  0.80489572     0.37100
N2285       N  0.57431790  0.61081506  0.77467226    -0.37700
N2286       N  0.70375489  0.60254918  0.81119485    -0.37700
N2287       N  0.60705818  0.66206392  0.82203776    -0.37100
N2288       N  0.67208181  0.55450982  0.75018120    -0.37100
C2289       C  0.17281613  0.71312744  0.86697743    -0.03800
C2290       C  0.16762768  0.73375918  0.84873123    -0.00900
C2291       C  0.16443989  0.75200440  0.87563941     0.04100
C2292       C  0.18714658  0.76417679  0.43303653    -0.03800
C2293       C  0.16986912  0.74899360  0.43565336    -0.00900
C2294       C  0.16915846  0.73112220  0.40717791     0.04100
C2295       C  0.16739904  0.73678968  0.80212280     0.38700
C2296       C  0.15343634  0.75108667  0.46893690     0.38700
C2297       C  0.15276923  0.71424307  0.41287172     0.37100
C2298       C  0.16067392  0.77335053  0.85624925     0.37100
N2299       N  0.13992090  0.70060324  0.41771625    -0.37700
N2300       N  0.15773045  0.79033428  0.84059485    -0.37700
N2301       N  0.14024692  0.75276808  0.49529947    -0.37100
N2302       N  0.16740525  0.73962645  0.76506178    -0.37100
C2303       C  0.18895823  0.70840448  0.67315967    -0.03800
C2304       C  0.20894086  0.71359964  0.65305818    -0.00900
C2305       C  0.21085486  0.73261820  0.62749365     0.04100
C2306       C  0.19317248  0.74730266  0.62380065    -0.03800
C2307       C  0.17285023  0.74151268  0.64222612    -0.00900
C2308       C  0.17059997  0.72176530  0.66559872     0.04100
C2309       C  0.22760167  0.69922458  0.65843258     0.38700
C2310       C  0.15438724  0.75622728  0.63905698     0.38700
C2311       C  0.14960730  0.71585629  0.68363806     0.37100
C2312       C  0.23075690  0.73644362  0.60347905     0.37100
N2313       N  0.13281424  0.71124065  0.69787152    -0.37700
N2314       N  0.24653540  0.73927115  0.58391973    -0.37700
N2315       N  0.13959114  0.76787904  0.63681726    -0.37100
N2316       N  0.24245422  0.68778979  0.66298917    -0.37100
C2317       C  0.02688339  0.53637451  0.52634031    -0.03800
C2318       C  0.01662949  0.52947198  0.00219425    -0.00900
C2319       C  0.99308808  0.54792043  0.56017338     0.04100
C2320       C  0.99364669  0.52925052  0.58718807    -0.03800
C2321       C  0.00982840  0.51327073  0.58146884    -0.00900
C2322       C  0.02647410  0.51683463  0.55115229     0.04100
C2323       C  0.01543866  0.53997097  0.95999014     0.38700
C2324       C  0.01029128  0.49391396  0.60891582     0.38700
C2325       C  0.04398834  0.50105497  0.54802016     0.37100
C2326       C  0.97525815  0.56335562  0.56355566     0.37100
N2327       N  0.05790298  0.48839936  0.54587130    -0.37700
N2328       N  0.96151925  0.54619690  0.00259787    -0.37700
N2329       N  0.01073211  0.47846598  0.63072092    -0.37100
N2330       N  0.01449938  0.54830715  0.92627920    -0.37100
C2331       C  0.05690513  0.51000542  0.83302301    -0.03800
C2332       C  0.03654118  0.50103877  0.84452354    -0.00900
C2333       C  0.01841762  0.50389717  0.81701577     0.04100
C2334       C  0.02051332  0.51596485  0.77828134    -0.03800
C2335       C  0.04115716  0.52335833  0.76490132    -0.00900
C2336       C  0.05935526  0.52064449  0.79258127     0.04100
C2337       C  0.03352928  0.49127320  0.88705514     0.38700
C2338       C  0.04344477  0.53420647  0.72324395     0.38700
C2339       C  0.08015247  0.53023561  0.78099731     0.37100
C2340       C  0.99724423  0.49578781  0.83014044     0.37100
N2341       N  0.09666086  0.53806662  0.77171644    -0.37700
N2342       N  0.98038746  0.48933663  0.84079377    -0.37700
N2343       N  0.04514139  0.54270677  0.68983837    -0.37100
N2344       N  0.03085866  0.48379503  0.92112426    -0.37100
C2345       C  0.15380327  0.60572456  0.82525931    -0.03800
C2346       C  0.13115972  0.60680458  0.83206974    -0.00900
C2347       C  0.12067977  0.59033792  0.85629735     0.04100
C2348       C  0.13282757  0.57271134  0.87406536    -0.03800
C2349       C  0.15525706  0.57091937  0.86458051    -0.00900
C2350       C  0.16565243  0.58734898  0.84008352     0.04100
C2351       C  0.11872304  0.62527031  0.81565720     0.38700
C2352       C  0.16794877  0.55268418  0.88120381     0.38700
C2353       C  0.18857714  0.58526287  0.82956653     0.37100
C2354       C  0.09725457  0.59142541  0.86216234     0.37100
N2355       N  0.20680627  0.58366475  0.82083057    -0.37700
N2356       N  0.07858596  0.59225167  0.86686022    -0.37700
N2357       N  0.17820681  0.53819360  0.89428266    -0.37100
N2358       N  0.10873258  0.63994144  0.80255833    -0.37100
C2359       C  0.34341685  0.76287543  0.95099541    -0.03800
C2360       C  0.35865343  0.74560559  0.95155508    -0.00900
C2361       C  0.35491813  0.72688819  0.97719641     0.04100
C2362       C  0.33633796  0.72567097  0.00386010    -0.03800
C2363       C  0.32194558  0.74362604  0.00576996    -0.00900
C2364       C  0.32520964  0.76199612  0.97876216     0.04100
C2365       C  0.37844330  0.74726040  0.92628413     0.38700
C2366       C  0.35858029  0.73907518  0.57028317     0.38700
C2367       C  0.30924142  0.77947505  0.97821817     0.37100
C2368       C  0.36990320  0.70859527  0.97500184     0.37100
N2369       N  0.29648186  0.79338121  0.97768146    -0.37700
N2370       N  0.38181063  0.69399033  0.97319302    -0.37700
N2371       N  0.36139453  0.74306817  0.60647552    -0.37100
N2372       N  0.39433887  0.74864958  0.90652387    -0.37100
C2373       C  0.34422225  0.75803528  0.75010342    -0.03800
C2374       C  0.32492242  0.74694563  0.73783618    -0.00900
C2375       C  0.32611071  0.72690179  0.71597125     0.04100
C2376       C  0.34648061  0.71854446  0.70274622    -0.03800
C2377       C  0.36577869  0.72979487  0.71404459    -0.00900
C2378       C  0.36467876  0.74932718  0.73795856     0.04100
C2379       C  0.30363510  0.75581569  0.74781135     0.38700
C2380       C  0.38679865  0.72173557  0.70010150     0.38700
C2381       C  0.38471464  0.76079544  0.74868356     0.37100
C2382       C  0.30624742  0.71439276  0.70885321     0.37100
N2383       N  0.40068993  0.76990217  0.75731777    -0.37700
N2384       N  0.29049034  0.70432894  0.70344661    -0.37700
N2385       N  0.40360016  0.71537637  0.68906115    -0.37100
N2386       N  0.28653409  0.76284193  0.75477136    -0.37100
C2387       C  0.29124088  0.63779428  0.68648307    -0.03800
C2388       C  0.29101301  0.64346903  0.73086320    -0.00900
C2389       C  0.27147025  0.64218307  0.75449568     0.04100
C2390       C  0.25177779  0.63611259  0.73350167    -0.03800
C2391       C  0.25301778  0.62685204  0.69145793    -0.00900
C2392       C  0.27266546  0.62787540  0.66804040     0.04100
C2393       C  0.31037946  0.65227943  0.75173448     0.38700
C2394       C  0.23418643  0.61658055  0.67145968     0.38700
C2395       C  0.27374204  0.61884400  0.62474675     0.37100
C2396       C  0.27181325  0.64755606  0.80021787     0.37100
N2397       N  0.27463965  0.61154524  0.59031824    -0.37700
N2398       N  0.27228875  0.65175801  0.83670978    -0.37700
N2399       N  0.21927944  0.60827451  0.65529761    -0.37100
N2400       N  0.32576580  0.65936218  0.76842357    -0.37100
C2401       C  0.49894998  0.52923819  0.57215283    -0.03800
C2402       C  0.50074440  0.54665895  0.60171408    -0.00900
C2403       C  0.51910737  0.54825231  0.62892984     0.04100
C2404       C  0.53607419  0.53283807  0.62569840    -0.03800
C2405       C  0.53416492  0.51519775  0.59660254    -0.00900
C2406       C  0.51546678  0.51326445  0.57022391     0.04100
C2407       C  0.48362117  0.56291143  0.60443783     0.38700
C2408       C  0.55194869  0.49979260  0.59188584     0.38700
C2409       C  0.51388495  0.49568468  0.53902965     0.37100
C2410       C  0.52021000  0.56535619  0.66129203     0.37100
N2411       N  0.51252831  0.48183942  0.51381133    -0.37700
N2412       N  0.52115000  0.57883198  0.68737272    -0.37700
N2413       N  0.56619206  0.48762852  0.58777141    -0.37100
N2414       N  0.47007185  0.57595987  0.60687652    -0.37100
C2415       C  0.54117099  0.53921389  0.81276578    -0.03800
C2416       C  0.51979658  0.53437883  0.79857706    -0.00900
C2417       C  0.50190688  0.53914778  0.82511555     0.04100
C2418       C  0.50532110  0.54816933  0.86648611    -0.03800
C2419       C  0.52666899  0.55271943  0.88109023    -0.00900
C2420       C  0.54458224  0.54860514  0.85390128     0.04100
C2421       C  0.51615644  0.52469895  0.75632769     0.38700
C2422       C  0.53003985  0.56234823  0.92342844     0.38700
C2423       C  0.56637279  0.55488550  0.86737244     0.37100
C2424       C  0.47992967  0.53482256  0.80974391     0.37100
N2425       N  0.58374472  0.56006516  0.87793791    -0.37700
N2426       N  0.46246036  0.53137082  0.79721650    -0.37700
N2427       N  0.53259148  0.57014345  0.95714483    -0.37100
N2428       N  0.51308339  0.51687734  0.72280799    -0.37100
C2429       C  0.41082067  0.58081106  0.52475085    -0.03800
C2430       C  0.37728737  0.59187562  0.98462602    -0.00900
C2431       C  0.37647446  0.59253818  0.55657754     0.04100
C2432       C  0.38568935  0.61315257  0.56604622    -0.03800
C2433       C  0.40765149  0.61740514  0.55555122    -0.00900
C2434       C  0.42032752  0.60110108  0.53590725     0.04100
C2435       C  0.36938100  0.57324219  0.96021240     0.38700
C2436       C  0.41698381  0.63886974  0.56310082     0.38700
C2437       C  0.44330106  0.60510094  0.52829094     0.37100
C2438       C  0.33932679  0.60058408  0.00420597     0.37100
N2439       N  0.46164342  0.60831289  0.52255085    -0.37700
N2440       N  0.32096292  0.59628466  0.00321732    -0.37700
N2441       N  0.42434448  0.65604461  0.56880240    -0.37100
N2442       N  0.36312047  0.55842743  0.94057606    -0.37100
C2443       C  0.20690794  0.25520658  0.78896461    -0.03800
C2444       C  0.21598484  0.25602689  0.74717642    -0.00900
C2445       C  0.21152208  0.23927671  0.71734860     0.04100
C2446       C  0.19828833  0.22115427  0.72936580    -0.03800
C2447       C  0.18942099  0.22030531  0.77148836    -0.00900
C2448       C  0.19393553  0.23712041  0.80126910     0.04100
C2449       C  0.22928445  0.27456608  0.73405194     0.38700
C2450       C  0.17584892  0.20205626  0.78474385     0.38700
C2451       C  0.18589755  0.23530703  0.84526703     0.37100
C2452       C  0.21985399  0.24148957  0.67358361     0.37100
N2453       N  0.17960478  0.23369202  0.88038314    -0.37700
N2454       N  0.22654198  0.24342299  0.63880978    -0.37700
N2455       N  0.16487746  0.18761058  0.79532580    -0.37100
N2456       N  0.23990669  0.28931890  0.72369818    -0.37100
C2457       C  0.19114025  0.23927140  0.04317047    -0.03800
C2458       C  0.21040469  0.25200355  0.04306803    -0.00900
C2459       C  0.21269428  0.26927835  0.01327138     0.04100
C2460       C  0.19580255  0.27401105  0.98345818    -0.03800
C2461       C  0.17597786  0.26240679  0.98542476    -0.00900
C2462       C  0.17365862  0.24500222  0.01510112     0.04100
C2463       C  0.22315750  0.22036115  0.52612923     0.38700
C2464       C  0.15845784  0.26734930  0.95508724     0.38700
C2465       C  0.15365236  0.23233310  0.01480417     0.37100
C2466       C  0.23260611  0.28218051  0.01293711     0.37100
N2467       N  0.13766233  0.22229745  0.01446441    -0.37700
N2468       N  0.24841038  0.29251573  0.01225018    -0.37700
N2469       N  0.14442808  0.27115114  0.93096642    -0.37100
N2470       N  0.24027545  0.21302748  0.53233919    -0.37100
C2471       C  0.01965384  0.38388691  0.49134669    -0.03800
C2472       C  0.01863669  0.37260831  0.53138167    -0.00900
C2473       C  0.03772957  0.36912540  0.55583528     0.04100
C2474       C  0.05727193  0.37938922  0.54353939    -0.03800
C2475       C  0.05907641  0.38811101  0.50127110    -0.00900
C2476       C  0.04025794  0.38996940  0.47472939     0.04100
C2477       C  0.99790056  0.36669474  0.55025768     0.38700
C2478       C  0.07969765  0.39696087  0.48662431     0.38700
C2479       C  0.04175434  0.40063681  0.43275076     0.37100
C2480       C  0.03712962  0.35619335  0.59540380     0.37100
N2481       N  0.06117441  0.41494833  0.98608316    -0.37700
N2482       N  0.03687106  0.34566006  0.62665841    -0.37700
N2483       N  0.09614468  0.40397331  0.47475806    -0.37100
N2484       N  0.98177522  0.36221611  0.56733343    -0.37100
C2485       C  0.02530539  0.41569256  0.82937965    -0.03800
C2486       C  0.04608298  0.42580660  0.83100537    -0.00900
C2487       C  0.05991659  0.42524738  0.79471363     0.04100
C2488       C  0.05341970  0.41405040  0.75690396    -0.03800
C2489       C  0.03252968  0.40435793  0.75489783    -0.00900
C2490       C  0.01851324  0.40524407  0.79080603     0.04100
C2491       C  0.05380835  0.43606748  0.87049115     0.38700
C2492       C  0.02492745  0.39440682  0.71497934     0.38700
C2493       C  0.99671362  0.39616317  0.78710070     0.37100
C2494       C  0.08105706  0.43585419  0.79680779     0.37100
N2495       N  0.97932345  0.38897421  0.78403155    -0.37700
N2496       N  0.09781055  0.44451000  0.79854913    -0.37700
N2497       N  0.01876378  0.38661917  0.68310203    -0.37100
N2498       N  0.04209004  0.44917396  0.49554095    -0.37100
C2499       C  0.11283253  0.50234535  0.52076190    -0.03800
C2500       C  0.12363014  0.48306464  0.50866746    -0.00900
C2501       C  0.12428520  0.46495003  0.53716594     0.04100
C2502       C  0.11402494  0.46612119  0.57813991    -0.03800
C2503       C  0.10602041  0.48652931  0.59238669    -0.00900
C2504       C  0.10573886  0.50465366  0.56405345     0.04100
C2505       C  0.13399452  0.48196069  0.46669009     0.38700
C2506       C  0.09681729  0.48879341  0.63538571     0.38700
C2507       C  0.09621213  0.52500834  0.57873098     0.37100
C2508       C  0.13423879  0.44482284  0.52270662     0.37100
N2509       N  0.08856952  0.54116111  0.59059438    -0.37700
N2510       N  0.14224287  0.42881332  0.51104856    -0.37700
N2511       N  0.08915273  0.49069940  0.66929265    -0.37100
N2512       N  0.14703608  0.45783318  0.01001544    -0.37100
C2513       C  0.14815599  0.37404595  0.72150483    -0.03800
C2514       C  0.15563492  0.35277332  0.71182398    -0.00900
C2515       C  0.16858470  0.34123416  0.74200622     0.04100
C2516       C  0.17460009  0.35105931  0.78161089    -0.03800
C2517       C  0.16829367  0.37265545  0.79035194    -0.00900
C2518       C  0.15512922  0.38416606  0.76051264     0.04100
C2519       C  0.15056488  0.34283952  0.67036788     0.38700
C2520       C  0.17578163  0.38320391  0.82977605     0.38700
C2521       C  0.14854568  0.40626050  0.77095810     0.37100
C2522       C  0.17498717  0.31888576  0.73289662     0.37100
N2523       N  0.14357965  0.42393561  0.77952739    -0.37700
N2524       N  0.18000077  0.30106686  0.72561431    -0.37700
N2525       N  0.18187688  0.39154465  0.86115216    -0.37100
N2526       N  0.14669378  0.33489252  0.63727063    -0.37100
C2527       C  0.51972978  0.43994629  0.79101720    -0.03800
C2528       C  0.53697347  0.42473685  0.79295157    -0.00900
C2529       C  0.55448866  0.42808763  0.82183982     0.04100
C2530       C  0.55475143  0.44653289  0.84908008    -0.03800
C2531       C  0.53763953  0.46183477  0.84696935    -0.00900
C2532       C  0.52005129  0.45840511  0.81840479     0.04100
C2533       C  0.53704689  0.40592457  0.76458320     0.38700
C2534       C  0.53751160  0.48052216  0.87578223     0.38700
C2535       C  0.50162090  0.47319317  0.81928101     0.37100
C2536       C  0.57258682  0.41285590  0.82269284     0.37100
N2537       N  0.48682512  0.48484024  0.82034570    -0.37700
N2538       N  0.58708262  0.40079393  0.82300854    -0.37700
N2539       N  0.53738643  0.49538079  0.89878377    -0.37100
N2540       N  0.53717670  0.39091253  0.74198227    -0.37100
C2541       C  0.51558153  0.43609516  0.59725139    -0.03800
C2542       C  0.51094659  0.43260792  0.55309788    -0.00900
C2543       C  0.52064026  0.45615037  0.03184653     0.04100
C2544       C  0.54988566  0.42871608  0.53910597    -0.03800
C2545       C  0.55440991  0.43183251  0.58346276    -0.00900
C2546       C  0.53733167  0.43600504  0.61226995     0.04100
C2547       C  0.48852091  0.43200469  0.53810556     0.38700
C2548       C  0.57670322  0.43137663  0.59941129     0.38700
C2549       C  0.54221116  0.44085699  0.65727382     0.37100
C2550       C  0.51511989  0.45265314  0.98666045     0.37100
N2551       N  0.54628006  0.44501927  0.69292534    -0.37700
N2552       N  0.51051034  0.44999080  0.95066288    -0.37700
N2553       N  0.59441067  0.43090076  0.61245682    -0.37100
N2554       N  0.47059414  0.43147036  0.52632881    -0.37100
C2555       C  0.42457017  0.50023075  0.86324588    -0.03800
C2556       C  0.43259899  0.47896771  0.87152480    -0.00900
C2557       C  0.43724310  0.46493510  0.83679426     0.04100
C2558       C  0.43316570  0.47179289  0.79343417    -0.03800
C2559       C  0.42179239  0.49152205  0.78600030    -0.00900
C2560       C  0.41719103  0.50552326  0.82090318     0.04100
C2561       C  0.43777683  0.47192542  0.91540037     0.38700
C2562       C  0.41542044  0.49782094  0.74233398     0.38700
C2563       C  0.40535534  0.52567383  0.81296413     0.37100
C2564       C  0.44835641  0.44447508  0.84616687     0.37100
N2565       N  0.39582061  0.54168089  0.80651657    -0.37700
N2566       N  0.45736736  0.42831790  0.85406678    -0.37700
N2567       N  0.41043971  0.50287050  0.70746373    -0.37100
N2568       N  0.44189711  0.46622992  0.95031299    -0.37100
C2569       C  0.33931106  0.27662933  0.45851700    -0.03800
C2570       C  0.31986284  0.27059109  0.43698885    -0.00900
C2571       C  0.33261772  0.23745797  0.90439646     0.04100
C2572       C  0.35052781  0.22338296  0.89784085    -0.03800
C2573       C  0.37045693  0.22758715  0.91962853    -0.00900
C2574       C  0.35856784  0.26460974  0.45193479     0.04100
C2575       C  0.30023979  0.28355882  0.44216646     0.38700
C2576       C  0.38878785  0.21288243  0.91481014     0.38700
C2577       C  0.37844764  0.27037306  0.47498741     0.37100
C2578       C  0.31182606  0.23324969  0.88323030     0.37100
N2579       N  0.39427058  0.27487443  0.49351369    -0.37700
N2580       N  0.29523272  0.22990215  0.86648425    -0.37700
N2581       N  0.40353122  0.20130516  0.91110264    -0.37100
N2582       N  0.28465739  0.29393053  0.44640537    -0.37100
C2583       C  0.34296782  0.26980722  0.65081140    -0.03800
C2584       C  0.34686247  0.24897093  0.63260911    -0.00900
C2585       C  0.34877332  0.23034390  0.65949636     0.04100
C2586       C  0.34630176  0.23228886  0.70465722    -0.03800
C2587       C  0.34233367  0.25308791  0.72282565    -0.00900
C2588       C  0.34082948  0.27176460  0.69606001     0.04100
C2589       C  0.34759891  0.24631080  0.58596687     0.38700
C2590       C  0.34020043  0.25548496  0.76933561     0.38700
C2591       C  0.33762892  0.29306683  0.71539760     0.37100
C2592       C  0.35215098  0.20902471  0.64033665     0.37100
N2593       N  0.33511890  0.31000762  0.73102571    -0.37700
N2594       N  0.35483426  0.19206369  0.62491122    -0.37700
N2595       N  0.33843904  0.25758647  0.80634830    -0.37100
N2596       N  0.34801594  0.24389168  0.54885105    -0.37100
C2597       C  0.26940372  0.34513423  0.91968280    -0.03800
C2598       C  0.28957394  0.34178366  0.89892262    -0.00900
C2599       C  0.30909579  0.34205174  0.92318258     0.04100
C2600       C  0.30856310  0.34640646  0.96818910    -0.03800
C2601       C  0.28911419  0.35446991  0.98626794    -0.00900
C2602       C  0.26950840  0.35390131  0.96207589     0.04100
C2603       C  0.29023665  0.33711148  0.85287938     0.38700
C2604       C  0.25448812  0.33969465  0.57568648     0.38700
C2605       C  0.24953336  0.36137678  0.98188939     0.37100
C2606       C  0.32919345  0.33576003  0.90219590     0.37100
N2607       N  0.23371334  0.36754386  0.99787934    -0.37700
N2608       N  0.34508669  0.33061749  0.88511746    -0.37700
N2609       N  0.25406767  0.33794559  0.61301993    -0.37100
N2610       N  0.29072092  0.33336000  0.81620442    -0.37100
C2611       C  0.38507003  0.37011004  0.60298778    -0.03800
C2612       C  0.37993727  0.38989763  0.62397407    -0.00900
C2613       C  0.39657934  0.40251758  0.64311672     0.04100
C2614       C  0.41850179  0.39580007  0.64026436    -0.03800
C2615       C  0.42377290  0.37646223  0.61814226    -0.00900
C2616       C  0.40711230  0.36350539  0.59998170     0.04100
C2617       C  0.35762974  0.39766869  0.62495693     0.38700
C2618       C  0.44639705  0.37012352  0.61319889     0.38700
C2619       C  0.41271614  0.34292848  0.57977567     0.37100
C2620       C  0.39106829  0.42199885  0.66731167     0.37100
N2621       N  0.41716037  0.32649458  0.56376327    -0.37700
N2622       N  0.38681878  0.43745561  0.68691803    -0.37700
N2623       N  0.46442897  0.36511157  0.60903731    -0.37100
N2624       N  0.33989845  0.40404979  0.62559093    -0.37100
loop_ 
_geom_bond_atom_site_label_1 
_geom_bond_atom_site_label_2 
_geom_bond_distance 
_geom_bond_site_symmetry_2 
_ccdc_geom_bond_type 
O1            C4   1.270   1_554  A
O1           Cd6   2.441       .  S
C2           O11   1.265       .  A
C2            O7   1.271       .  A
C2         C1271   1.479       .  S
O3            C9   1.276       .  A
O3           Cd6   2.476   1_556  S
C4           O12   1.267       .  A
C4         C2600   1.490       .  S
C5           O10   1.272       .  A
C5            O8   1.266       .  A
C5         C1299   1.486       .  S
Cd6          O13   2.382       .  S
Cd6          O12   2.440   1_554  S
Cd6          O11   2.411       .  S
Cd6           O7   2.447       .  S
Cd6          O10   2.488       .  S
Cd6           O8   2.410       .  S
C9           O13   1.263   1_556  A
C9         C1257   1.487       .  S
O14          C17   1.274       .  A
O14         Cd19   2.450       .  S
C15          O24   1.264       .  A
C15          O20   1.275       .  A
C15        C1229   1.469       .  S
O16          C22   1.273       .  A
O16         Cd19   2.455       .  S
C17          O25   1.265       .  A
C17        C1246   1.494       .  S
C18          O23   1.272       .  A
C18          O21   1.269       .  A
C18        C1302   1.492       .  S
Cd19         O26   2.400       .  S
Cd19         O25   2.408       .  S
Cd19         O24   2.349       .  S
Cd19         O20   2.489       .  S
Cd19         O23   2.444       .  S
Cd19         O21   2.414       .  S
C22          O26   1.266       .  A
C22        C1215   1.479       .  S
O27          C30   1.269       .  A
O27         Cd32   2.489       .  S
C28          O37   1.264       .  A
C28          O33   1.269       .  A
C28        C1176   1.490       .  S
O29          C35   1.266       .  A
O29         Cd32   2.464       .  S
C30          O38   1.262       .  A
C30        C1190   1.502       .  S
C31          O36   1.266       .  A
C31          O34   1.266       .  A
C31        C1201   1.490       .  S
Cd32         O39   2.450       .  S
Cd32         O38   2.453       .  S
Cd32         O37   2.418       .  S
Cd32         O33   2.527       .  S
Cd32         O36   2.448       .  S
Cd32         O34   2.454       .  S
C35          O39   1.265       .  A
C35        C1162   1.485       .  S
O40          C43   1.271       .  A
O40         Cd45   2.469       .  S
C41          O50   1.266       .  A
C41          O46   1.273       .  A
C41        C1131   1.472       .  S
O42          C48   1.275       .  A
O42         Cd45   2.476       .  S
C43          O51   1.266       .  A
C43        C1285   1.492       .  S
C44          O49   1.271       .  A
C44          O47   1.266       .  A
C44        C1204   1.473       .  S
Cd45         O52   2.370       .  S
Cd45         O51   2.419       .  S
Cd45         O50   2.400       .  S
Cd45         O46   2.433       .  S
Cd45         O49   2.462       .  S
Cd45         O47   2.407       .  S
C48          O52   1.263       .  A
C48        C1148   1.487       .  S
O53          C56   1.272       .  A
O53         Cd58   2.469       .  S
C54          O63   1.265       .  A
C54          O59   1.272       .  A
C54        C1089   1.478       .  S
O55          C61   1.271       .  A
O55         Cd58   2.452       .  S
C56          O64   1.265       .  A
C56        C1243   1.492       .  S
C57          O60   1.267       .  A
C57        O1374   1.271       .  A
C57        C1117   1.479       .  S
Cd58         O65   2.420       .  S
Cd58         O64   2.390       .  S
Cd58         O62   2.441       .  S
Cd58       O1375   2.380       .  S
Cd58       O1371   2.452       .  S
Cd58       O1372   2.423       .  S
O59       Cd1370   2.458   1_554  S
O60       Cd1370   2.420       .  S
C61          O65   1.263       .  A
C61        C1106   1.473       .  S
O62        C1369   1.269       .  A
O63       Cd1370   2.417   1_554  S
O66          C69   1.270       .  A
O66         Cd71   2.444       .  S
C67          O76   1.266       .  A
C67          O72   1.273       .  A
C67        C1050   1.480       .  S
O68          C74   1.271       .  A
O68         Cd71   2.469       .  S
C69          O77   1.266       .  A
C69        C1075   1.499       .  S
C70          O75   1.269       .  A
C70          O73   1.267       .  A
C70        C1120   1.487       .  S
Cd71         O78   2.392       .  S
Cd71         O77   2.446       .  S
Cd71         O75   2.438       .  S
Cd71         O73   2.456       .  S
Cd71       O1388   2.408       .  S
Cd71       O1384   2.470       .  S
O72       Cd1383   2.462       .  S
C74          O78   1.262       .  A
C74        C1064   1.474       .  S
O76       Cd1383   2.403       .  S
O79          C82   1.273       .  A
O79         Cd84   2.447       .  S
C80          O89   1.265       .  A
C80          O85   1.274       .  A
C80        C1019   1.476       .  S
O81          C87   1.274       .  A
O81         Cd84   2.442       .  S
C82          O90   1.266       .  A
C82        C2499   1.486       .  S
C83          O88   1.271       .  A
C83          O86   1.268       .  A
C83        C1036   1.482       .  S
Cd84         O91   2.381       .  S
Cd84         O90   2.407       .  S
Cd84         O89   2.387       .  S
Cd84         O85   2.463       .  S
Cd84         O88   2.439       .  S
Cd84         O86   2.398       .  S
C87          O91   1.265       .  A
C87        C2317   1.476       .  S
O92          C95   1.270       .  A
O92         Cd97   2.436       .  S
C93         O102   1.267       .  A
C93          O98   1.270       .  A
C93        C1078   1.493       .  S
O94         C100   1.271       .  A
O94         Cd97   2.461       .  S
C95         O103   1.265       .  A
C95         C977   1.472       .  S
C96         O101   1.274       .  A
C96          O99   1.263       .  A
C96         C991   1.477       .  S
Cd97        O104   2.405       .  S
Cd97        O103   2.402       .  S
Cd97        O102   2.454       .  S
Cd97         O98   2.441       .  S
Cd97        O101   2.485       .  S
Cd97         O99   2.361       .  S
C100        O104   1.265       .  A
C100       C1033   1.481       .  S
O105        C108   1.273       .  A
O105       Cd110   2.472       .  S
C106        O115   1.266       .  A
C106        O111   1.274       .  A
C106        C949   1.493       .  S
O107        C113   1.275       .  A
O107       Cd110   2.464       .  S
C108        O116   1.265       .  A
C108       C1103   1.471       .  S
C109        O114   1.273       .  A
C109        O112   1.267       .  A
C109        C963   1.484       .  S
Cd110       O117   2.392       .  S
Cd110       O116   2.380       .  S
Cd110       O115   2.412       .  S
Cd110       O111   2.454       .  S
Cd110       O114   2.463       .  S
Cd110       O112   2.396       .  S
C113        O117   1.266       .  A
C113       C1092   1.483       .  S
O118        C121   1.270       .  A
O118       Cd123   2.466       .  S
C119        O128   1.266       .  A
C119        O124   1.268       .  A
C119        C935   1.500       .  S
O120        C126   1.262       .  A
O120       Cd123   2.378       .  S
C121        O129   1.263       .  A
C121        C907   1.485       .  S
C122        O127   1.267       .  A
C122        O125   1.267       .  A
C122        C966   1.484       .  S
Cd123       O130   2.472       .  S
Cd123       O129   2.426       .  S
Cd123       O128   2.445       .  S
Cd123       O124   2.442       .  S
Cd123       O127   2.440       .  S
Cd123       O125   2.453       .  S
C126        O130   1.270       .  A
C126        C921   1.475       .  S
O131        C134   1.272       .  A
O131       Cd136   2.445       .  S
C132        O141   1.266       .  A
C132        O137   1.270       .  A
C132        C879   1.488       .  S
O133        C139   1.272       .  A
O133       Cd136   2.465       .  S
C134        O142   1.264       .  A
C134        C854   1.473       .  S
C135        O140   1.271       .  A
C135        O138   1.266       .  A
C135        C893   1.489       .  S
Cd136       O143   2.394       .  S
Cd136       O142   2.407       .  S
Cd136       O141   2.429       .  S
Cd136       O137   2.457       .  S
Cd136       O140   2.448       .  S
Cd136       O138   2.414       .  S
C139        O143   1.264       .  A
C139        C865   1.479       .  S
O144        C147   1.271       .  A
O144       Cd149   2.467       .  S
C145        O154   1.266       .  A
C145        O150   1.271       .  A
C145       C2264   1.499       .  S
O146        C152   1.271       .  A
O146       Cd149   2.471       .  S
C147        O155   1.264       .  A
C147       C1218   1.473       .  S
C148        O153   1.269       .  A
C148        O151   1.267       .  A
C148        C896   1.479       .  S
Cd149       O156   2.403       .  S
Cd149       O155   2.399       .  S
Cd149       O154   2.424       .  S
Cd149       O150   2.458       .  S
Cd149       O153   2.443       .  S
Cd149       O151   2.423       .  S
C152        O156   1.261       .  A
C152       C2544   1.472       .  S
O157        C160   1.270       .  A
O157       Cd162   2.478       .  S
C158        O167   1.265       .  A
C158        O163   1.270   1_556  A
C158       C2250   1.493       .  S
O159        C165   1.272       .  A
O159       Cd162   2.477   1_556  S
C160        O168   1.264       .  A
C160        C809   1.487       .  S
C161        O166   1.269       .  A
C161        O164   1.266       .  A
C161        C837   1.486       .  S
Cd162       O169   2.391   1_554  S
Cd162       O168   2.435       .  S
Cd162       O167   2.441   1_554  S
Cd162       O163   2.444       .  S
Cd162       O166   2.457       .  S
Cd162       O164   2.437       .  S
C165        O169   1.263       .  A
C165        C823   1.480       .  S
O170        C173   1.269       .  A
O170       Cd175   2.468       .  S
C171        O180   1.264       .  A
C171        O176   1.268       .  A
C171        C798   1.500       .  S
O172        C178   1.267       .  A
O172       Cd175   2.483       .  S
C173        O181   1.263       .  A
C173       C1008   1.478       .  S
C174        O179   1.265       .  A
C174        O177   1.268       .  A
C174        C840   1.483       .  S
Cd175       O182   2.417       .  S
Cd175       O181   2.430       .  S
Cd175       O180   2.441       .  S
Cd175       O176   2.499       .  S
Cd175       O179   2.424       .  S
Cd175       O177   2.477       .  S
C178        O182   1.262       .  A
C178       C1022   1.483       .  S
O183        C186   1.273       .  A
O183      Cd1500   2.454       .  S
C184        O193   1.266       .  A
C184        O189   1.269       .  A
C184        C882   1.499       .  S
O185        C191   1.273       .  A
O185       Cd188   2.483       .  S
C186       O1506   1.265       .  A
C186        C756   1.491       .  S
C187        O192   1.270       .  A
C187        O190   1.265       .  A
C187        C781   1.482       .  S
Cd188       O195   2.386       .  S
Cd188       O194   2.430       .  S
Cd188       O193   2.457       .  S
Cd188       O189   2.453       .  S
Cd188       O192   2.466       .  S
Cd188       O190   2.416       .  S
Cd188      O1495   2.436       .  S
C191        O195   1.262       .  A
C191        C767   1.480       .  S
O194       C1498   1.266       .  A
O196        C199   1.268   1_656  A
O196      Cd1513   2.447       .  S
C197        O206   1.276       .  A
C197        O202   1.269       .  A
C197        C795   1.504       .  S
O198        C204   1.266       .  A
O198       Cd201   2.335       .  S
C199        O207   1.265   1_554  A
C199       C1159   1.479       .  S
C200        O203   1.265       .  A
C200       O1517   1.269       .  A
C200        C784   1.481       .  S
Cd201       O208   2.496       .  S
Cd201       O206   2.484       .  S
Cd201       O202   2.401       .  S
Cd201       O205   2.384       .  S
Cd201      O1508   2.398       .  S
Cd201      O1519   2.486       .  S
Cd201      O1515   2.462       .  S
O203      Cd1513   2.405       .  S
C204        O208   1.278       .  A
C204       C1173   1.471   1_655  S
O205       C1512   1.270       .  A
O207      Cd1513   2.425   1_455  S
O209        C212   1.268       .  A
O209       Cd214   2.443       .  S
C210        O219   1.266       .  A
C210        O215   1.266       .  A
C210        C725   1.485       .  S
O211        C217   1.271       .  A
O211       Cd214   2.492       .  S
C212        O220   1.264       .  A
C212       C1260   1.480       .  S
C213        O218   1.269       .  A
C213        O216   1.265       .  A
C213        C742   1.477       .  S
Cd214       O221   2.383       .  S
Cd214       O220   2.412       .  S
Cd214       O219   2.439       .  S
Cd214       O215   2.423       .  S
Cd214       O218   2.446       .  S
Cd214       O216   2.418       .  S
C217        O221   1.262       .  A
C217       C1274   1.479       .  S
O222        C225   1.273       .  A
O222       Cd227   2.444       .  S
C223        O232   1.267       .  A
C223        O228   1.272       .  A
C223       C2026   1.490       .  S
O224        C230   1.276       .  A
O224       Cd227   2.475       .  S
C225        O233   1.266       .  A
C225        C686   1.479       .  S
C226        O231   1.272       .  A
C226        O229   1.267       .  A
C226        C739   1.478       .  S
Cd227       O234   2.362       .  S
Cd227       O233   2.410       .  S
Cd227       O232   2.412       .  S
Cd227       O228   2.433       .  S
Cd227       O231   2.440       .  S
Cd227       O229   2.417       .  S
C230        O234   1.263       .  A
C230       C2009   1.480       .  S
O235        C238   1.271       .  A
O235      Cd1552   2.440       .  S
C236        O245   1.267       .  A
C236        O241   1.267       .  A
C236        C728   1.491       .  S
O237        C243   1.274       .  A
O237       Cd240   2.493       .  S
C238        O246   1.266       .  A
C238       C1145   1.494       .  S
C239        O244   1.270       .  A
C239        O242   1.263       .  A
C239        C669   1.488       .  S
Cd240       O247   2.383       .  S
Cd240       O245   2.466       .  S
Cd240       O241   2.425       .  S
Cd240       O244   2.488       .  S
Cd240       O242   2.422       .  S
Cd240      O1547   2.438       .  S
Cd240      O1558   2.410       .  S
C243        O247   1.262       .  A
C243       C1134   1.480       .  S
O246      Cd1552   2.419       .  S
O248        C251   1.277   1_556  A
O248      Cd1565   2.424       .  S
C249        O258   1.265       .  A
C249        O254   1.271       .  A
C249        C658   1.504   1_545  S
O250        C256   1.272       .  A
O250       Cd253   2.454       .  S
C251        O259   1.269   1_554  A
C251        C641   1.477       .  S
C252        O255   1.270       .  A
C252       O1569   1.276       .  A
C252        C672   1.489       .  S
Cd253       O260   2.387       .  S
Cd253       O258   2.432       .  S
Cd253       O254   2.478       .  S
Cd253       O257   2.459       .  S
Cd253      O1560   2.454       .  S
Cd253      O1571   2.395       .  S
Cd253      O1567   2.408       .  S
O255      Cd1565   2.385       .  S
C256        O260   1.263       .  A
C256        C627   1.473       .  S
O257       C1564   1.270       .  A
O259      Cd1565   2.384       .  S
O261        C264   1.272       .  A
O261       Cd266   2.440       .  S
C262        O271   1.267       .  A
C262        O267   1.270       .  A
C262        C711   1.490       .  S
O263        C269   1.275       .  A
O263       Cd266   2.504       .  S
C264        O272   1.267       .  A
C264        C599   1.477       .  S
C265        O270   1.273       .  A
C265        O268   1.266       .  A
C265        C613   1.483       .  S
Cd266       O273   2.349       .  S
Cd266       O272   2.393       .  S
Cd266       O271   2.431       .  S
Cd266       O267   2.441       .  S
Cd266       O270   2.459       .  S
Cd266       O268   2.400       .  S
C269        O273   1.262       .  A
C269        C588   1.482       .  S
O274        C277   1.272       .  A
O274       Cd279   2.442       .  S
C275        O284   1.266       .  A
C275        O280   1.268       .  A
C275        C571   1.495       .  S
O276        C282   1.273       .  A
O276       Cd279   2.487       .  S
C277        O285   1.265       .  A
C277       C1061   1.481       .  S
C278        O283   1.270       .  A
C278        O281   1.266       .  A
C278        C616   1.486       .  S
Cd279       O286   2.392       .  S
Cd279       O285   2.404       .  S
Cd279       O284   2.446       .  S
Cd279       O280   2.448       .  S
Cd279       O283   2.466       .  S
Cd279       O281   2.424       .  S
C282        O286   1.262       .  A
C282       C1047   1.482       .  S
O287        C290   1.277       .  A
O287       Cd292   2.485       .  S
C288        O297   1.267       .  A
C288        O293   1.275       .  A
C288        C655   1.494       .  S
O289        C295   1.273       .  A
O289       Cd292   2.431       .  S
C290        O298   1.264       .  A
C290        C546   1.485       .  S
C291        O296   1.271       .  A
C291        O294   1.269       .  A
C291        C560   1.480       .  S
Cd292       O299   2.388       .  S
Cd292       O298   2.373       .  S
Cd292       O297   2.423       .  S
Cd292       O293   2.445       .  S
Cd292       O296   2.410       .  S
Cd292       O294   2.407       .  S
C295        O299   1.266       .  A
C295        C529   1.481       .  S
O300        C303   1.270       .  A
O300       Cd305   2.444       .  S
C301        O310   1.267       .  A
C301        O306   1.268       .  A
C301        C574   1.472       .  S
O302        C308   1.275       .  A
O302       Cd305   2.489   1_556  S
C303        O311   1.265       .  A
C303        C994   1.484       .  S
C304        O309   1.271       .  A
C304        O307   1.263       .  A
C304        C557   1.481       .  S
Cd305       O312   2.379   1_554  S
Cd305       O311   2.411       .  S
Cd305       O310   2.437   1_554  S
Cd305       O306   2.442   1_554  S
Cd305       O309   2.469       .  S
Cd305       O307   2.387       .  S
C308        O312   1.264       .  A
C308        C980   1.485       .  S
O313        C316   1.268   1_554  A
O313       Cd318   2.440       .  S
C314        O323   1.264       .  A
C314        O319   1.269       .  A
C314        C868   1.486       .  S
O315        C321   1.271       .  A
O315       Cd318   2.485   1_556  S
C316        O324   1.267       .  A
C316       C1816   1.500       .  S
C317        O322   1.269       .  A
C317        O320   1.265       .  A
C317        C515   1.480       .  S
Cd318       O325   2.378   1_554  S
Cd318       O324   2.463   1_554  S
Cd318       O323   2.448       .  S
Cd318       O319   2.453       .  S
Cd318       O322   2.455       .  S
Cd318       O320   2.421       .  S
C321        O325   1.262       .  A
C321       C2163   1.478       .  S
O326        C329   1.269       .  A
O326       Cd331   2.446       .  S
C327        O336   1.265       .  A
C327        O332   1.271       .  A
C327        C700   1.479       .  S
O328        C334   1.273       .  A
O328       Cd331   2.480       .  S
C329        O337   1.266       .  A
C329        C487   1.492       .  S
C330        O335   1.271       .  A
C330        O333   1.265       .  A
C330        C518   1.475       .  S
Cd331       O338   2.371       .  S
Cd331       O337   2.447       .  S
Cd331       O336   2.408       .  S
Cd331       O332   2.442       .  S
Cd331       O335   2.451       .  S
Cd331       O333   2.395       .  S
C334        O338   1.263       .  A
C334        C683   1.475       .  S
O339        C342   1.272       .  A
O339       Cd344   2.438       .  S
C340        O349   1.263       .  A
C340        O345   1.267       .  A
C340        C924   1.478       .  S
O341        C347   1.275       .  A
O341       Cd344   2.483       .  S
C342        O350   1.268       .  A
C342        C459   1.492       .  S
C343        O348   1.274       .  A
C343        O346   1.266       .  A
C343        C476   1.489       .  S
Cd344       O351   2.364       .  S
Cd344       O350   2.431       .  S
Cd344       O348   2.457       .  S
Cd344       O346   2.391       .  S
Cd344      O1661   2.432       .  S
Cd344      O1657   2.442       .  S
O345      Cd1656   2.438       .  S
C347        O351   1.263       .  A
C347        C910   1.481       .  S
O349      Cd1656   2.440       .  S
O352        C355   1.271       .  A
O352       Cd357   2.452       .  S
C353        O362   1.265       .  A
C353        O358   1.275       .  A
C353        C585   1.486   1_556  S
O354        C360   1.273       .  A
O354       Cd357   2.471       .  S
C355        O363   1.266       .  A
C355        C490   1.497       .  S
C356        O359   1.267       .  A
C356       O1673   1.273       .  A
C356        C473   1.483   1_556  S
Cd357       O364   2.378       .  S
Cd357       O363   2.429       .  S
Cd357       O361   2.448       .  S
Cd357      O1674   2.417       .  S
Cd357      O1670   2.471       .  S
Cd357      O1671   2.418       .  S
O358      Cd1669   2.469       .  S
O359      Cd1669   2.399       .  S
C360        O364   1.263       .  A
C360        C602   1.481       .  S
O361       C1668   1.270       .  A
O362      Cd1669   2.383       .  S
O365       C1680   1.274       .  A
O365       Cd370   2.442       .  S
C366        O375   1.265       .  A
C366        O371   1.275       .  A
C366        C532   1.488   1_655  S
O367       C1685   1.274       .  A
O367       Cd370   2.471       .  S
C368        O376   1.265   1_556  A
C368       O1677   1.274       .  A
C368        C431   1.501   1_556  S
C369        O374   1.273       .  A
C369        O372   1.269       .  A
C369        C445   1.481       .  S
Cd370       O377   2.383       .  S
Cd370       O375   2.366       .  S
Cd370       O371   2.474       .  S
Cd370       O374   2.440       .  S
Cd370       O372   2.403       .  S
Cd370      O1688   2.409       .  S
C373       O1679   1.273       .  A
C373       O1689   1.264   1_554  A
C373        C543   1.485   1_655  S
O376      Cd1682   2.410   1_554  S
O377       C1685   1.264       .  A
O378        C381   1.270       .  A
O378       Cd383   2.439       .  S
C379        O388   1.265       .  A
C379        O384   1.272       .  A
C379        C826   1.482       .  S
O380        C386   1.275       .  A
O380       Cd383   2.486       .  S
C381        O389   1.267       .  A
C381        C462   1.495       .  S
C382        O387   1.273       .  A
C382        O385   1.265       .  A
C382        C448   1.487       .  S
Cd383       O390   2.401       .  S
Cd383       O389   2.451       .  S
Cd383       O388   2.403       .  S
Cd383       O384   2.447       .  S
Cd383       O387   2.484       .  S
Cd383       O385   2.407       .  S
C386        O390   1.264       .  A
C386        C812   1.488       .  S
O391        C394   1.272       .  A
O391       Cd396   2.452       .  S
C392        O401   1.265       .  A
C392        O397   1.273       .  A
C392        C630   1.470   1_655  S
O393        C399   1.275       .  A
O393       Cd396   2.473       .  S
C394        O402   1.266       .  A
C394        C434   1.493       .  S
C395        O400   1.272       .  A
C395        O398   1.267       .  A
C395        C420   1.482       .  S
Cd396       O403   2.364       .  S
Cd396       O402   2.415       .  S
Cd396       O401   2.375       .  S
Cd396       O397   2.443       .  S
Cd396       O400   2.457       .  S
Cd396       O398   2.416       .  S
C399        O403   1.264       .  A
C399        C644   1.481   1_655  S
O404        C407   1.270       .  A
O404       Cd409   2.407       .  S
C405        O414   1.267       .  A
C405        O410   1.272       .  A
C405        C770   1.474       .  S
O406        C412   1.276       .  A
O406       Cd409   2.460       .  S
C407        O415   1.269       .  A
C407        C501   1.490       .  S
C408        O413   1.274       .  A
C408        O411   1.266       .  A
C408        C417   1.487       .  S
Cd409       O416   2.370       .  S
Cd409       O415   2.436       .  S
Cd409       O414   2.405       .  S
Cd409       O410   2.417       .  S
Cd409       O413   2.464       .  S
Cd409       O411   2.397       .  S
C412        O416   1.264       .  A
C412        C753   1.477       .  S
C417        C418   1.416       .  A
C417        C422   1.416       .  A
C418        C419   1.411       .  A
C418        C423   1.452       .  S
C419        C420   1.412       .  A
C419        C426   1.452       .  S
C420        C421   1.411       .  A
C421        C422   1.410       .  A
C421        C424   1.452       .  S
C422        C425   1.452       .  S
C423        N430   1.157       .  T
C424        N429   1.157       .  T
C425        N427   1.157       .  T
C426        N428   1.157       .  T
C431        C432   1.413   1_565  A
C431        C436   1.421       .  A
C432        C433   1.411       .  A
C432        C437   1.450   1_554  S
C433        C434   1.420       .  A
C433        C440   1.451       .  S
C434        C435   1.411   1_545  A
C435        C436   1.412       .  A
C435        C438   1.453       .  S
C436        C439   1.450       .  S
C437       N1756   1.155       .  T
C438        N443   1.156       .  T
C439        N441   1.159       .  T
C440        N442   1.159       .  T
N444       C1749   1.155       .  T
C445        C446   1.415       .  A
C445        C450   1.409       .  A
C446        C447   1.411       .  A
C446        C451   1.453       .  S
C447        C448   1.412       .  A
C447        C454   1.451       .  S
C448        C449   1.419       .  A
C449        C450   1.409       .  A
C449        C452   1.452       .  S
C450        C453   1.452       .  S
C451        N458   1.158       .  T
C452        N457   1.157       .  T
C453       N1767   1.157       .  T
C454        N456   1.157       .  T
N455       C1765   1.157       .  T
C459        C460   1.417       .  A
C459        C464   1.412       .  A
C460        C461   1.410       .  A
C460        C465   1.451       .  S
C461        C462   1.415       .  A
C461        C468   1.452       .  S
C462        C463   1.419       .  A
C463        C464   1.412       .  A
C463        C466   1.451       .  S
C464        C467   1.452       .  S
C465        N472   1.158       .  T
C466        N471   1.158       .  T
C467        N469   1.157       .  T
C468        N470   1.157       .  T
C473        C478   1.417       .  A
C473       C1786   1.409   1_554  A
C474        C475   1.411       .  A
C474       C1785   1.413       .  A
C474        C479   1.452       .  S
C475       C1788   1.418       .  A
C475        C482   1.453       .  S
C476        C477   1.414       .  A
C476       C1787   1.421       .  A
C477        C478   1.410       .  A
C477        C480   1.452       .  S
C478        C481   1.453       .  S
C479        N486   1.157       .  T
C480        N485   1.157       .  T
C481        N483   1.158       .  T
C482        N484   1.158       .  T
C487        C488   1.417       .  A
C487        C492   1.411   1_545  A
C488        C489   1.412       .  A
C488        C493   1.451       .  S
C489        C490   1.416   1_545  A
C489        C496   1.452       .  S
C490        C491   1.421       .  A
C491        C492   1.411       .  A
C491        C494   1.451       .  S
C492        C495   1.452       .  S
C493        N500   1.157       .  T
C494        N499   1.158       .  T
C495        N497   1.157       .  T
C496        N498   1.157       .  T
C501        C502   1.417       .  A
C501        C506   1.412       .  A
C502        C503   1.411       .  A
C502        C507   1.453       .  S
C503        C504   1.417       .  A
C503       C1822   1.453       .  S
C504       C1628   1.498       .  S
C504        C505   1.421       .  A
C505        C506   1.410       .  A
C505        C508   1.451       .  S
C506        C509   1.453       .  S
C507        N514   1.158       .  T
C508        N513   1.157       .  T
C509        N511   1.157       .  T
C510       C1815   1.452   1_554  S
C510        N512   1.157       .  T
C515        C516   1.414       .  A
C515        C520   1.415       .  A
C516        C517   1.407       .  A
C516        C521   1.452       .  S
C517        C518   1.412       .  A
C517        C524   1.453       .  S
C518        C519   1.411       .  A
C519        C520   1.409       .  A
C519        C522   1.452       .  S
C520        C523   1.452       .  S
C521        N528   1.157       .  T
C522        N527   1.157       .  T
C523        N525   1.157       .  T
C524        N526   1.157       .  T
C529        C530   1.410       .  A
C529        C534   1.417       .  A
C530        C531   1.406       .  A
C530        C535   1.453       .  S
C531        C532   1.421       .  A
C531        C538   1.454       .  S
C532        C533   1.414       .  A
C533        C534   1.410       .  A
C533        C536   1.451   1_455  S
C534        C537   1.454       .  S
C535        N542   1.157       .  T
C536        N541   1.157       .  T
C537        N539   1.158       .  T
C538        N540   1.157       .  T
C543        C544   1.418       .  A
C543        C548   1.411       .  A
C544        C545   1.412       .  A
C544        C549   1.452   1_554  S
C545        C546   1.412       .  A
C545        C552   1.452       .  S
C546        C547   1.418       .  A
C547        C548   1.408       .  A
C547        C550   1.452       .  S
C548        C551   1.453   1_455  S
C549       N1868   1.158       .  T
C550        N555   1.157       .  T
C551        N553   1.157       .  T
C552        N554   1.157       .  T
N556       C1861   1.157       .  T
C557        C558   1.415       .  A
C557        C562   1.413       .  A
C558        C559   1.408       .  A
C558        C563   1.452       .  S
C559        C560   1.412       .  A
C559        C566   1.452       .  S
C560        C561   1.415       .  A
C561        C562   1.408       .  A
C561        C564   1.453       .  S
C562        C565   1.452       .  S
C563        N570   1.157       .  T
C564        N569   1.158       .  T
C565        N567   1.157       .  T
C566        N568   1.157       .  T
C571        C572   1.419       .  A
C571        C576   1.415       .  A
C572        C573   1.411       .  A
C572        C577   1.451       .  S
C573       C1886   1.412       .  A
C573        C580   1.452       .  S
C574       C1885   1.409       .  A
C574       C1887   1.409       .  A
C575        C576   1.412       .  A
C575       C1886   1.419       .  A
C575       C1890   1.452       .  S
C576        C579   1.452       .  S
C577        N584   1.157       .  T
C578       C1887   1.450       .  S
C578        N583   1.157       .  T
C579        N581   1.157       .  T
C580       N1894   1.157       .  T
N582       C1892   1.157       .  T
C585        C586   1.419       .  A
C585        C590   1.413       .  A
C586        C587   1.412       .  A
C586        C591   1.453       .  S
C587        C588   1.410       .  A
C587        C594   1.451       .  S
C588        C589   1.416       .  A
C589        C590   1.407       .  A
C589        C592   1.455       .  S
C590        C593   1.452       .  S
C591        N598   1.158       .  T
C592        N597   1.158       .  T
C593        N595   1.157   1_554  T
C594        N596   1.157       .  T
C599        C600   1.408       .  A
C599        C604   1.416       .  A
C600        C601   1.406       .  A
C600        C605   1.452       .  S
C601        C602   1.418       .  A
C601        C608   1.451       .  S
C602        C603   1.411       .  A
C603        C604   1.408       .  A
C603        C606   1.452       .  S
C604        C607   1.452       .  S
C605        N612   1.157       .  T
C606        N611   1.157       .  T
C607        N609   1.157       .  T
C608        N610   1.157       .  T
C613        C614   1.414       .  A
C613        C618   1.413       .  A
C614        C615   1.409       .  A
C614        C619   1.453       .  S
C615        C616   1.415       .  A
C615        C622   1.452       .  S
C616        C617   1.415       .  A
C617        C618   1.411       .  A
C617        C620   1.451       .  S
C618        C621   1.452       .  S
C619        N626   1.158       .  T
C620        N625   1.157       .  T
C621        N623   1.157       .  T
C622        N624   1.157       .  T
C627        C628   1.416       .  A
C627        C632   1.410       .  A
C628        C629   1.406       .  A
C628        C633   1.452       .  S
C629        C630   1.407       .  A
C629        C636   1.452   1_455  S
C630        C631   1.414       .  A
C631        C632   1.406       .  A
C631        C634   1.453       .  S
C632        C635   1.452       .  S
C633        N640   1.157       .  T
C634        N639   1.157       .  T
C635        N637   1.157       .  T
C636        N638   1.157       .  T
C641        C642   1.413       .  A
C641        C646   1.409       .  A
C642        C643   1.410       .  A
C642        C647   1.450       .  S
C643        C644   1.412       .  A
C643        C650   1.451       .  S
C644        C645   1.417       .  A
C645        C646   1.405       .  A
C645        C648   1.454       .  S
C646        C649   1.450       .  S
C647        N654   1.157       .  T
C648        N653   1.158   1_455  T
C649        N651   1.156       .  T
C650        N652   1.157       .  T
C655        C656   1.418       .  A
C655        C660   1.409       .  A
C656        C657   1.413       .  A
C656        C661   1.452       .  S
C657        C658   1.418       .  A
C657        C664   1.451       .  S
C658        C659   1.422   1_565  A
C659        C660   1.411   1_545  A
C659        C662   1.450       .  S
C660        C663   1.451       .  S
C661        N668   1.158       .  T
C662        N667   1.157       .  T
C663        N665   1.157   1_565  T
C664        N666   1.157       .  T
C669        C670   1.415       .  A
C669        C674   1.414       .  A
C670       C1983   1.410       .  A
C670       C1987   1.452       .  S
C671       C1982   1.407       .  A
C671       C1984   1.414       .  A
C671        C678   1.452       .  S
C672        C673   1.415   1_556  A
C672       C1983   1.415   1_556  A
C673        C674   1.412       .  A
C673        C676   1.451   1_554  S
C674        C677   1.451       .  S
C675       C1982   1.452       .  S
C675        N682   1.157       .  T
C676        N681   1.157       .  T
C677        N679   1.157       .  T
C678        N680   1.157       .  T
C683        C684   1.408       .  A
C683        C688   1.414       .  A
C684        C685   1.410       .  A
C684        C689   1.452       .  S
C685        C686   1.417       .  A
C685        C692   1.450       .  S
C686        C687   1.409       .  A
C687        C688   1.406       .  A
C687        C690   1.451       .  S
C688        C691   1.452       .  S
C689        N696   1.157       .  T
C690        N695   1.157       .  T
C691        N693   1.157       .  T
C692        N694   1.157       .  T
C697       C1542   1.473       .  S
C697        C698   1.412       .  A
C697       C2014   1.411       .  A
C698        C699   1.407       .  A
C698        C703   1.453       .  S
C699        C700   1.413       .  A
C699        C706   1.452       .  S
C700        C701   1.415       .  A
C701       C2014   1.408       .  A
C701        C704   1.452       .  S
C702       C2009   1.410       .  A
C702       C2013   1.409       .  A
C702        C705   1.452       .  S
C703        N710   1.157       .  T
C704       N2021   1.157       .  T
C705        N707   1.157       .  T
C706        N708   1.157       .  T
N709       C2016   1.157       .  T
C711        C712   1.412       .  A
C711        C716   1.417       .  A
C712        C713   1.412       .  A
C712        C717   1.452       .  S
C713        C714   1.420       .  A
C713        C720   1.451   1_565  S
C714       C1535   1.497   1_565  S
C714        C715   1.416       .  A
C715        C716   1.410       .  A
C715        C718   1.452   1_554  S
C716        C719   1.452       .  S
C717        N724   1.158       .  T
C718       N2035   1.158       .  T
C719        N721   1.157       .  T
C720        N722   1.157       .  T
N723       C2030   1.158       .  T
C725        C726   1.414       .  A
C725        C730   1.416       .  A
C726        C727   1.411       .  A
C726        C731   1.453       .  S
C727        C728   1.417       .  A
C727        C734   1.450       .  S
C728        C729   1.415       .  A
C729        C730   1.408       .  A
C729        C732   1.452       .  S
C730        C733   1.452       .  S
C731        N738   1.158       .  T
C732        N737   1.157       .  T
C733        N735   1.157       .  T
C734        N736   1.157       .  T
C739        C740   1.413       .  A
C739        C744   1.412       .  A
C740        C741   1.410       .  A
C740        C745   1.451       .  S
C741        C742   1.413       .  A
C741        C748   1.452       .  S
C742        C743   1.412       .  A
C743        C744   1.407       .  A
C743        C746   1.452       .  S
C744        C747   1.452       .  S
C745        N752   1.157       .  T
C746        N751   1.157       .  T
C747        N749   1.157       .  T
C748        N750   1.158       .  T
C753        C754   1.414       .  A
C753        C758   1.406       .  A
C754        C755   1.409       .  A
C754        C759   1.454       .  S
C755        C756   1.417       .  A
C755        C762   1.452       .  S
C756        C757   1.420       .  A
C757        C758   1.408       .  A
C757        C760   1.449       .  S
C758        C761   1.453       .  S
C759        N766   1.158       .  T
C760        N765   1.156       .  T
C761        N763   1.157       .  T
C762        N764   1.157       .  T
C767        C768   1.417       .  A
C767        C772   1.412       .  A
C768        C769   1.406       .  A
C768        C773   1.452       .  S
C769        C770   1.408       .  A
C769        C776   1.454       .  S
C770        C771   1.413       .  A
C771        C772   1.410       .  A
C771        C774   1.452       .  S
C772        C775   1.451       .  S
C773        N780   1.157       .  T
C774        N779   1.157       .  T
C775        N777   1.157       .  T
C776        N778   1.158       .  T
C781        C782   1.413       .  A
C781        C786   1.414       .  A
C782        C783   1.406       .  A
C782        C787   1.452       .  S
C783        C784   1.413   1_554  A
C783        C790   1.453   1_554  S
C784        C785   1.413   1_556  A
C785        C786   1.412       .  A
C785        C788   1.451       .  S
C786        C789   1.451       .  S
C787        N794   1.157       .  T
C788        N793   1.157       .  T
C789        N791   1.157       .  T
C790        N792   1.157       .  T
C795        C796   1.420       .  A
C795        C800   1.418       .  A
C796        C797   1.412       .  A
C796        C801   1.452       .  S
C797        C798   1.415       .  A
C797        C804   1.452       .  S
C798        C799   1.416       .  A
C799        C800   1.416       .  A
C799        C802   1.448       .  S
C800        C803   1.450       .  S
C801        N808   1.157       .  T
C802        N807   1.157       .  T
C803        N805   1.157       .  T
C804        N806   1.157       .  T
C809        C810   1.417       .  A
C809        C814   1.411       .  A
C810        C811   1.412       .  A
C810        C815   1.452       .  S
C811        C812   1.411       .  A
C811        C818   1.451       .  S
C812        C813   1.418       .  A
C813        C814   1.411       .  A
C813        C816   1.453       .  S
C814        C817   1.451       .  S
C815        N822   1.157       .  T
C816        N821   1.157       .  T
C817        N819   1.157       .  T
C818        N820   1.157       .  T
C823        C824   1.410       .  A
C823        C828   1.412       .  A
C824       C2137   1.410       .  A
C824        C829   1.452       .  S
C825        C826   1.418       .  A
C825       C2136   1.410       .  A
C825        C832   1.452       .  S
C826        C827   1.412       .  A
C827       C2140   1.405       .  A
C827        C830   1.452       .  S
C828       C2139   1.409       .  A
C828        C831   1.454       .  S
C829        N836   1.157       .  T
C830        N835   1.157       .  T
C831        N833   1.158       .  T
C832        N834   1.157       .  T
C837        C838   1.417       .  A
C837        C842   1.413       .  A
C838        C839   1.412       .  A
C838        C843   1.451       .  S
C839        C840   1.411       .  A
C839        C846   1.451       .  S
C840        C841   1.415       .  A
C841        C842   1.408       .  A
C841        C844   1.453       .  S
C842        C845   1.452       .  S
C843        N850   1.157       .  T
C844        N849   1.157       .  T
C845        N847   1.157       .  T
C846        N848   1.157       .  T
C851       C1633   1.481       .  S
C851        C852   1.413       .  A
C851       C2168   1.418       .  A
C852        C853   1.410       .  A
C852        C857   1.450       .  S
C853        C854   1.412       .  A
C853        C860   1.452       .  S
C854        C855   1.408       .  A
C855       C2168   1.407       .  A
C855       C2170   1.453       .  S
C856       C2163   1.411       .  A
C856       C2167   1.411       .  A
C856        C859   1.451       .  S
C857        N864   1.157       .  T
C858       C2167   1.451       .  S
C858        N863   1.157       .  T
C859        N861   1.157       .  T
C860        N862   1.157       .  T
C865        C866   1.413       .  A
C865        C870   1.411       .  A
C866        C867   1.408       .  A
C866        C871   1.453       .  S
C867        C868   1.415       .  A
C867        C874   1.453       .  S
C868        C869   1.417       .  A
C869        C870   1.411       .  A
C869        C872   1.451       .  S
C870        C873   1.452       .  S
C871        N878   1.157       .  T
C872        N877   1.157       .  T
C873        N875   1.157       .  T
C874        N876   1.157       .  T
C879        C880   1.410       .  A
C879        C884   1.416       .  A
C880        C881   1.413       .  A
C880        C885   1.451       .  S
C881        C882   1.421       .  A
C881        C888   1.451       .  S
C882        C883   1.416       .  A
C883        C884   1.410       .  A
C883        C886   1.452       .  S
C884        C887   1.453       .  S
C885        N892   1.157       .  T
C886        N891   1.157       .  T
C887        N889   1.158       .  T
C888        N890   1.158       .  T
C893        C894   1.417       .  A
C893        C898   1.418       .  A
C894        C895   1.409       .  A
C894        C899   1.452       .  S
C895        C896   1.412       .  A
C895        C902   1.453       .  S
C896        C897   1.410       .  A
C897        C898   1.410       .  A
C897        C900   1.452       .  S
C898        C901   1.452       .  S
C899        N906   1.158       .  T
C900        N905   1.157       .  T
C901        N903   1.157       .  T
C902        N904   1.157       .  T
C907        C908   1.416       .  A
C907        C912   1.414       .  A
C908        C909   1.411       .  A
C908        C913   1.452       .  S
C909        C910   1.411       .  A
C909        C916   1.451       .  S
C910        C911   1.415       .  A
C911        C912   1.408       .  A
C911        C914   1.454       .  S
C912        C915   1.452       .  S
C913        N920   1.157       .  T
C914        N919   1.158       .  T
C915        N917   1.157       .  T
C916        N918   1.157       .  T
C921        C922   1.412       .  A
C921        C926   1.412       .  A
C922        C923   1.405       .  A
C922        C927   1.453       .  S
C923        C924   1.413       .  A
C923        C930   1.453       .  S
C924        C925   1.414       .  A
C925        C926   1.410       .  A
C925       C2240   1.452       .  S
C926        C929   1.452       .  S
C927        N934   1.157       .  T
C928       C2237   1.451       .  S
C928        N933   1.157       .  T
C929        N931   1.157       .  T
C930        N932   1.157       .  T
C935        C936   1.421       .  A
C935        C940   1.416       .  A
C936        C937   1.413       .  A
C936        C941   1.452       .  S
C937        C938   1.412       .  A
C937       C2256   1.451       .  S
C938       C1470   1.495       .  S
C938        C939   1.419       .  A
C939        C940   1.412       .  A
C939        C942   1.452       .  S
C940        C943   1.453       .  S
C941        N948   1.158       .  T
C942        N947   1.157       .  T
C943        N945   1.158       .  T
C944       C2249   1.452   1_554  S
C944        N946   1.157       .  T
C949        C950   1.421       .  A
C949        C954   1.412       .  A
C950        C951   1.412       .  A
C950        C955   1.452       .  S
C951        C952   1.413       .  A
C951        C958   1.451   1_554  S
C952       C1457   1.495       .  S
C952        C953   1.416       .  A
C953        C954   1.410       .  A
C953        C956   1.451       .  S
C954        C957   1.451       .  S
C955        N962   1.158       .  T
C956        N961   1.157       .  T
C957        N959   1.157       .  T
C958       N2272   1.157       .  T
N960       C2270   1.157       .  T
C963        C964   1.416       .  A
C963        C968   1.412       .  A
C964        C965   1.410       .  A
C964        C969   1.453       .  S
C965        C966   1.413       .  A
C965        C972   1.452       .  S
C966        C967   1.416       .  A
C967        C968   1.410       .  A
C967        C970   1.452       .  S
C968        C971   1.451       .  S
C969        N976   1.158       .  T
C970        N975   1.157       .  T
C971        N973   1.157       .  T
C972        N974   1.157       .  T
C977        C978   1.410       .  A
C977       C2294   1.413       .  A
C978        C979   1.404       .  A
C978        C983   1.453       .  S
C979       C2292   1.412       .  A
C979        C986   1.450       .  S
C980        C981   1.417       .  A
C980       C2291   1.412       .  A
C981        C982   1.410       .  A
C981        C984   1.452       .  S
C982       C2289   1.409       .  A
C982        C985   1.451       .  S
C983        N990   1.157       .  T
C984        N989   1.157   1_556  T
C985        N987   1.157       .  T
C986        N988   1.156       .  T
C991        C992   1.414       .  A
C991        C996   1.409       .  A
C992        C993   1.405       .  A
C992        C997   1.454       .  S
C993        C994   1.414       .  A
C993       C1000   1.453       .  S
C994        C995   1.418       .  A
C995        C996   1.411       .  A
C995        C998   1.451       .  S
C996        C999   1.451       .  S
C997       N1004   1.157       .  T
C998       N1003   1.157       .  T
C999       N1001   1.157       .  T
C1000      N1002   1.157       .  T
C1005      C1399   1.477   1_554  S
C1005      C1010   1.412       .  A
C1005      C2318   1.412       .  A
C1006      C2317   1.411       .  A
C1006      C2319   1.406   1_455  A
C1006      C1011   1.451       .  S
C1007      C1008   1.412       .  A
C1007      C2318   1.412   1_655  A
C1007      C1014   1.451       .  S
C1008      C1009   1.411   1_655  A
C1009      C1010   1.406       .  A
C1009      C1012   1.449       .  S
C1010      C1013   1.453       .  S
C1011      N1018   1.157       .  T
C1012      N1017   1.156       .  T
C1013      N1015   1.157       .  T
C1014      N2328   1.157       .  T
N1016      C2326   1.157       .  T
C1019      C1020   1.412       .  A
C1019      C1024   1.408       .  A
C1020      C1021   1.409   1_455  A
C1020      C1025   1.452       .  S
C1021      C1022   1.414       .  A
C1021      C1028   1.451       .  S
C1022      C1023   1.417   1_655  A
C1023      C1024   1.409       .  A
C1023      C1026   1.451       .  S
C1024      C1027   1.450       .  S
C1025      N1032   1.157   1_455  T
C1026      N1031   1.157       .  T
C1027      N1029   1.157       .  T
C1028      N1030   1.157       .  T
C1033      C1034   1.413       .  A
C1033      C1038   1.414       .  A
C1034      C1035   1.410       .  A
C1034      C1039   1.451       .  S
C1035      C1036   1.415       .  A
C1035      C1042   1.452       .  S
C1036      C1037   1.414       .  A
C1037      C1038   1.407       .  A
C1037      C1040   1.453       .  S
C1038      C1041   1.453       .  S
C1039      N1046   1.157       .  T
C1040      N1045   1.157       .  T
C1041      N1043   1.157       .  T
C1042      N1044   1.157       .  T
C1047      C1048   1.417       .  A
C1047      C1052   1.410       .  A
C1048      C1049   1.409       .  A
C1048      C1053   1.452       .  S
C1049      C1050   1.409       .  A
C1049      C1056   1.451       .  S
C1050      C1051   1.416       .  A
C1051      C1052   1.409       .  A
C1051      C2366   1.452       .  S
C1052      C1055   1.451       .  S
C1053      N1060   1.157       .  T
C1054      C2363   1.452       .  S
C1054      N1059   1.157       .  T
C1055      N1057   1.157       .  T
C1056      N1058   1.157       .  T
C1061      C1062   1.414       .  A
C1061      C1066   1.416       .  A
C1062      C1063   1.407       .  A
C1062      C1067   1.453       .  S
C1063      C1064   1.412       .  A
C1063      C1070   1.453       .  S
C1064      C1065   1.410       .  A
C1065      C1066   1.409       .  A
C1065      C1068   1.452       .  S
C1066      C1069   1.452       .  S
C1067      N1074   1.158       .  T
C1068      N1073   1.157       .  T
C1069      N1071   1.157       .  T
C1070      N1072   1.158       .  T
C1075      C1076   1.421       .  A
C1075      C1080   1.415       .  A
C1076      C1077   1.412       .  A
C1076      C1081   1.451       .  S
C1077      C1078   1.412       .  A
C1077      C1084   1.452       .  S
C1078      C1079   1.418       .  A
C1079      C1080   1.412       .  A
C1079      C1082   1.451       .  S
C1080      C1083   1.452       .  S
C1081      N1088   1.158       .  T
C1082      N1087   1.157       .  T
C1083      N1085   1.157       .  T
C1084      N1086   1.157       .  T
C1089      C1090   1.412       .  A
C1089      C1094   1.412       .  A
C1090      C1091   1.412       .  A
C1090      C1095   1.451       .  S
C1091      C1092   1.413       .  A
C1091      C1098   1.451       .  S
C1092      C1093   1.415       .  A
C1093      C1094   1.407       .  A
C1093      C1096   1.453       .  S
C1094      C1097   1.453       .  S
C1095      N1102   1.157       .  T
C1096      N1101   1.157       .  T
C1097      N1099   1.157   1_554  T
C1098      N1100   1.157       .  T
C1103      C1104   1.412       .  A
C1103      C1108   1.409       .  A
C1104      C1105   1.406       .  A
C1104      C1109   1.452       .  S
C1105      C1106   1.409       .  A
C1105      C1112   1.452       .  S
C1106      C1107   1.413       .  A
C1107      C1108   1.409       .  A
C1107      C1110   1.451       .  S
C1108      C1111   1.450       .  S
C1109      N1116   1.157       .  T
C1110      N1115   1.157       .  T
C1111      N1113   1.157       .  T
C1112      N1114   1.157       .  T
C1117      C1122   1.411   1_556  A
C1117      C2430   1.412       .  A
C1118      C2429   1.412       .  A
C1118      C2431   1.407       .  A
C1118      C1123   1.452       .  S
C1119      C1120   1.416       .  A
C1119      C2430   1.412   1_554  A
C1119      C2438   1.451       .  S
C1120      C1121   1.416       .  A
C1121      C1122   1.407       .  A
C1121      C1124   1.452       .  S
C1122      C1125   1.453       .  S
C1123      N1130   1.157       .  T
C1124      N1129   1.157       .  T
C1125      N1127   1.157       .  T
C1126      C2431   1.452       .  S
C1126      N1128   1.157       .  T
C1131      C1132   1.406       .  A
C1131      C1136   1.414       .  A
C1132      C1133   1.407       .  A
C1132      C1137   1.452       .  S
C1133      C1134   1.417       .  A
C1133      C1140   1.452       .  S
C1134      C1135   1.411       .  A
C1135      C1136   1.409       .  A
C1135      C1138   1.450       .  S
C1136      C1139   1.452       .  S
C1137      N1144   1.157       .  T
C1138      N1143   1.157       .  T
C1139      N1141   1.157       .  T
C1140      N1142   1.157       .  T
C1145      C1146   1.417       .  A
C1145      C1150   1.421       .  A
C1146      C1147   1.408       .  A
C1146      C2463   1.453       .  S
C1147      C1148   1.417       .  A
C1147      C1154   1.454       .  S
C1148      C1149   1.412       .  A
C1149      C1150   1.412       .  A
C1149      C1152   1.452       .  S
C1150      C1153   1.452       .  S
C1151      C2458   1.452       .  S
C1151      N1158   1.157       .  T
C1152      N1157   1.157       .  T
C1153      N1155   1.157       .  T
C1154      N1156   1.158       .  T
C1159      C1160   1.412       .  A
C1159      C1164   1.411       .  A
C1160      C1161   1.410       .  A
C1160      C1165   1.452   1_455  S
C1161      C1162   1.414       .  A
C1161      C1168   1.450       .  S
C1162      C1163   1.415       .  A
C1163      C1164   1.409       .  A
C1163      C1166   1.451       .  S
C1164      C1167   1.452       .  S
C1165      N1172   1.157       .  T
C1166      N1171   1.157       .  T
C1167      N2481   1.157   1_554  T
C1168      N1170   1.157   1_455  T
N1169      C2479   1.158       .  T
C1173      C1174   1.409       .  A
C1173      C1178   1.406       .  A
C1174      C1175   1.414       .  A
C1174      C1179   1.451       .  S
C1175      C1176   1.415       .  A
C1175      C1182   1.447       .  S
C1176      C1177   1.414       .  A
C1177      C1178   1.408       .  A
C1177      C1180   1.448       .  S
C1178      C1181   1.451   1_455  S
C1179      N2498   1.157       .  T
C1180      N1185   1.156       .  T
C1181      N1183   1.157       .  T
C1182      N1184   1.156       .  T
N1186      C2491   1.157       .  T
C1187      C1394   1.505       .  S
C1187      C1188   1.415       .  A
C1187      C1192   1.423       .  A
C1188      C1189   1.415       .  A
C1188      C1193   1.450       .  S
C1189      C1190   1.419       .  A
C1189      C1196   1.450       .  S
C1190      C1191   1.411       .  A
C1191      C1192   1.412       .  A
C1191      C1194   1.450       .  S
C1192      C1195   1.451       .  S
C1193      N2512   1.157       .  T
C1194      N1199   1.157       .  T
C1195      N1197   1.158       .  T
C1196      N1198   1.158       .  T
N1200      C2505   1.157       .  T
C1201      C1202   1.419       .  A
C1201      C1206   1.418       .  A
C1202      C1203   1.410       .  A
C1202      C1207   1.452       .  S
C1203      C1204   1.408       .  A
C1203      C1210   1.452       .  S
C1204      C1205   1.406       .  A
C1205      C1206   1.409       .  A
C1205      C1208   1.452       .  S
C1206      C1209   1.448       .  S
C1207      N1214   1.158       .  T
C1208      N1213   1.157       .  T
C1209      N1211   1.156       .  T
C1210      N1212   1.157       .  T
C1215      C1216   1.413       .  A
C1215      C1220   1.414       .  A
C1216      C1217   1.410       .  A
C1216      C1221   1.451       .  S
C1217      C1218   1.411       .  A
C1217      C1224   1.451       .  S
C1218      C1219   1.411       .  A
C1219      C1220   1.407       .  A
C1219      C1222   1.452       .  S
C1220      C1223   1.453       .  S
C1221      N1228   1.157       .  T
C1222      N1227   1.157       .  T
C1223      N1225   1.157       .  T
C1224      N1226   1.157       .  T
C1229      C1230   1.408       .  A
C1229      C1234   1.410       .  A
C1230      C2543   1.412       .  A
C1230      C1235   1.450       .  S
C1231      C2542   1.410       .  A
C1231      C2544   1.413       .  A
C1231      C1238   1.451       .  S
C1232      C1464   1.477       .  S
C1232      C1233   1.410       .  A
C1232      C2543   1.415       .  A
C1233      C1234   1.405       .  A
C1233      C1236   1.452       .  S
C1234      C1237   1.452       .  S
C1235      N1242   1.157       .  T
C1236      N1241   1.157       .  T
C1237      N1239   1.157       .  T
C1238      N1240   1.157       .  T
C1243      C1244   1.411       .  A
C1243      C1248   1.415       .  A
C1244      C1245   1.411       .  A
C1244      C1249   1.451       .  S
C1245      C1246   1.423       .  A
C1245      C1252   1.451       .  S
C1246      C1247   1.414       .  A
C1247      C1248   1.409       .  A
C1247      C1250   1.451       .  S
C1248      C1251   1.451       .  S
C1249      N1256   1.157       .  T
C1250      N1255   1.157       .  T
C1251      N1253   1.157       .  T
C1252      N1254   1.158       .  T
C1257      C1258   1.418       .  A
C1257      C1262   1.413       .  A
C1258      C2571   1.409       .  A
C1258      C1263   1.454       .  S
C1259      C1260   1.415       .  A
C1259      C2570   1.406       .  A
C1259      C1266   1.452       .  S
C1260      C1261   1.416       .  A
C1261      C2574   1.408       .  A
C1261      C1264   1.451       .  S
C1262      C2573   1.411       .  A
C1262      C1265   1.452       .  S
C1263      N1270   1.158       .  T
C1264      N1269   1.157       .  T
C1265      N1267   1.157       .  T
C1266      N1268   1.157       .  T
C1271      C1272   1.417       .  A
C1271      C1276   1.409       .  A
C1272      C1273   1.411       .  A
C1272      C1277   1.452       .  S
C1273      C1274   1.410       .  A
C1273      C1280   1.451       .  S
C1274      C1275   1.416       .  A
C1275      C1276   1.406       .  A
C1275      C1278   1.453       .  S
C1276      C1279   1.452       .  S
C1277      N1284   1.157       .  T
C1278      N1283   1.157       .  T
C1279      N1281   1.157       .  T
C1280      N1282   1.157       .  T
C1285      C1286   1.412       .  A
C1285      C1290   1.417       .  A
C1286      C1287   1.414       .  A
C1286      C1291   1.452       .  S
C1287      C1288   1.423       .  A
C1287      C1294   1.452       .  S
C1288      C1316   1.504       .  S
C1288      C1289   1.418       .  A
C1289      C1290   1.410       .  A
C1289      C2604   1.452       .  S
C1290      C1293   1.454       .  S
C1291      N1298   1.158       .  T
C1292      C2601   1.451   1_554  S
C1292      N1297   1.157       .  T
C1293      N1295   1.158       .  T
C1294      N1296   1.158       .  T
C1299      C1300   1.413       .  A
C1299      C1304   1.413       .  A
C1300      C1301   1.409       .  A
C1300      C1305   1.453       .  S
C1301      C1302   1.418       .  A
C1301      C1308   1.453       .  S
C1302      C1303   1.418       .  A
C1303      C1304   1.413       .  A
C1303      C1306   1.452       .  S
C1304      C1307   1.451       .  S
C1305      N1312   1.157       .  T
C1306      N1311   1.158       .  T
C1307      N1309   1.157       .  T
C1308      N1310   1.158       .  T
O1313      C1316   1.269       .  A
O1313     Cd1318   2.453       .  S
C1314      O1323   1.263       .  A
C1314      O1319   1.271       .  A
C1314      C2583   1.484       .  S
O1315      C1321   1.271       .  A
O1315     Cd1318   2.460       .  S
C1316      O1324   1.265       .  A
C1317      O1322   1.267       .  A
C1317      O1320   1.266       .  A
C1317      C2611   1.483       .  S
Cd1318     O1325   2.374       .  S
Cd1318     O1324   2.447       .  S
Cd1318     O1323   2.424       .  S
Cd1318     O1319   2.475       .  S
Cd1318     O1322   2.442       .  S
Cd1318     O1320   2.448       .  S
C1321      O1325   1.263       .  A
C1321      C2569   1.472       .  S
O1326      C1329   1.277       .  A
O1326     Cd1331   2.451       .  S
C1327      O1336   1.266       .  A
C1327      O1332   1.276       .  A
C1327      C2541   1.469       .  S
O1328      C1334   1.276       .  A
O1328     Cd1331   2.447       .  S
C1329      O1337   1.268       .  A
C1329      C2558   1.491       .  S
C1330      O1335   1.273       .  A
C1330      O1333   1.270       .  A
C1330      C2614   1.475       .  S
Cd1331     O1338   2.372       .  S
Cd1331     O1337   2.382       .  S
Cd1331     O1336   2.361       .  S
Cd1331     O1332   2.463       .  S
Cd1331     O1335   2.426       .  S
Cd1331     O1333   2.397       .  S
C1334      O1338   1.268       .  A
C1334      C2527   1.478       .  S
O1339      C1342   1.265       .  A
O1339     Cd1344   2.424       .  S
C1340      O1349   1.265       .  A
C1340      O1345   1.267       .  A
C1340      C2488   1.485       .  S
O1341      C1347   1.267       .  A
O1341     Cd1344   2.524       .  S
C1342      O1350   1.266       .  A
C1342      C2502   1.491       .  S
C1343      O1348   1.266       .  A
C1343      O1346   1.263       .  A
C1343      C2513   1.487       .  S
Cd1344     O1351   2.396       .  S
Cd1344     O1350   2.465       .  S
Cd1344     O1349   2.441       .  S
Cd1344     O1345   2.475       .  S
Cd1344     O1348   2.452       .  S
Cd1344     O1346   2.435       .  S
C1347      O1351   1.262       .  A
C1347      C2474   1.482       .  S
O1352      C1355   1.267       .  A
O1352     Cd1357   2.418       .  S
C1353      O1362   1.265       .  A
C1353      O1358   1.271       .  A
C1353      C2443   1.480       .  S
O1354      C1360   1.271       .  A
O1354     Cd1357   2.470       .  S
C1355      O1363   1.266       .  A
C1355      C2597   1.494       .  S
C1356      O1361   1.270       .  A
C1356      O1359   1.264       .  A
C1356      C2516   1.473       .  S
Cd1357     O1364   2.358       .  S
Cd1357     O1363   2.472       .  S
Cd1357     O1362   2.408       .  S
Cd1357     O1358   2.446       .  S
Cd1357     O1361   2.442       .  S
Cd1357     O1359   2.398       .  S
C1360      O1364   1.263       .  A
C1360      C2460   1.471       .  S
O1365      C1368   1.272       .  A
O1365     Cd1370   2.454       .  S
C1366      O1375   1.265       .  A
C1366      O1371   1.273       .  A
C1366      C2401   1.471       .  S
O1367      C1373   1.272       .  A
O1367     Cd1370   2.471       .  S
C1368      O1376   1.266       .  A
C1368      C2555   1.492       .  S
C1369      O1372   1.268       .  A
C1369      C2429   1.481       .  S
Cd1370     O1377   2.407       .  S
Cd1370     O1376   2.409       .  S
Cd1370     O1374   2.438       .  S
C1373      O1377   1.263       .  A
C1373      C2418   1.473       .  S
O1378      C1381   1.271       .  A
O1378     Cd1383   2.455       .  S
C1379      O1388   1.264       .  A
C1379      O1384   1.271       .  A
C1379      C2362   1.480       .  S
O1380      C1386   1.274       .  A
O1380     Cd1383   2.477       .  S
C1381      O1389   1.266       .  A
C1381      C2387   1.487       .  S
C1382      O1387   1.271       .  A
C1382      O1385   1.266       .  A
C1382      C2432   1.479       .  S
Cd1383     O1390   2.357       .  S
Cd1383     O1389   2.423       .  S
Cd1383     O1387   2.453       .  S
Cd1383     O1385   2.405       .  S
C1386      O1390   1.264       .  A
C1386      C2376   1.484       .  S
O1391      C1394   1.277   1_556  A
O1391     Cd1396   2.478       .  S
C1392      O1401   1.264       .  A
C1392      O1397   1.278       .  A
C1392      C2331   1.469       .  S
O1393      C1399   1.273       .  A
O1393     Cd1396   2.451       .  S
C1394      O1402   1.267       .  A
C1395      O1400   1.272       .  A
C1395      O1398   1.272       .  A
C1395      C2348   1.485       .  S
Cd1396     O1403   2.410       .  S
Cd1396     O1402   2.395   1_556  S
Cd1396     O1401   2.347       .  S
Cd1396     O1397   2.481       .  S
Cd1396     O1400   2.407       .  S
Cd1396     O1398   2.430       .  S
C1399      O1403   1.267       .  A
O1404      C1407   1.271       .  A
O1404     Cd1409   2.463       .  S
C1405      O1414   1.266       .  A
C1405      O1410   1.271       .  A
C1405      C2390   1.502       .  S
O1406      C1412   1.271       .  A
O1406     Cd1409   2.469       .  S
C1407      O1415   1.265       .  A
C1407      C2289   1.482       .  S
C1408      O1413   1.274       .  A
C1408      O1411   1.264       .  A
C1408      C2303   1.480       .  S
Cd1409     O1416   2.395       .  S
Cd1409     O1415   2.433       .  S
Cd1409     O1414   2.435       .  S
Cd1409     O1410   2.456       .  S
Cd1409     O1413   2.481       .  S
Cd1409     O1411   2.369       .  S
C1412      O1416   1.265       .  A
C1412      C2345   1.477       .  S
O1417      C1420   1.277       .  A
O1417     Cd1422   2.489       .  S
C1418      O1427   1.266       .  A
C1418      O1423   1.277       .  A
C1418      C2261   1.503       .  S
O1419      C1425   1.274       .  A
O1419     Cd1422   2.411       .  S
C1420      O1428   1.264       .  A
C1420      C2415   1.474       .  S
C1421      O1426   1.271       .  A
C1421      O1424   1.270       .  A
C1421      C2275   1.476       .  S
Cd1422     O1429   2.397       .  S
Cd1422     O1428   2.375       .  S
Cd1422     O1427   2.388       .  S
Cd1422     O1423   2.473       .  S
Cd1422     O1426   2.412       .  S
Cd1422     O1424   2.422       .  S
C1425      O1429   1.268       .  A
C1425      C2404   1.472       .  S
O1430      C1433   1.269       .  A
O1430     Cd1435   2.449       .  S
C1431      O1440   1.267       .  A
C1431      O1436   1.270       .  A
C1431      C2247   1.493       .  S
O1432      C1438   1.263       .  A
O1432     Cd1435   2.378       .  S
C1433      O1441   1.265       .  A
C1433      C2219   1.485       .  S
C1434      O1439   1.271       .  A
C1434      O1437   1.264       .  A
C1434      C2278   1.478       .  S
Cd1435     O1442   2.491       .  S
Cd1435     O1441   2.437       .  S
Cd1435     O1440   2.443       .  S
Cd1435     O1436   2.436       .  S
Cd1435     O1439   2.453       .  S
Cd1435     O1437   2.413       .  S
C1438      O1442   1.272       .  A
C1438      C2233   1.477       .  S
O1443      C1446   1.270       .  A
O1443     Cd1448   2.445       .  S
C1444      O1453   1.268       .  A
C1444      O1449   1.269       .  A
C1444      C2191   1.498       .  S
O1445      C1451   1.274       .  A
O1445     Cd1448   2.471       .  S
C1446      O1454   1.264       .  A
C1446      C2166   1.481       .  S
C1447      O1452   1.271       .  A
C1447      O1450   1.266       .  A
C1447      C2205   1.486       .  S
Cd1448     O1455   2.392       .  S
Cd1448     O1454   2.431       .  S
Cd1448     O1453   2.444       .  S
Cd1448     O1449   2.429       .  S
Cd1448     O1452   2.477       .  S
Cd1448     O1450   2.433       .  S
C1451      O1455   1.262       .  A
C1451      C2177   1.477       .  S
O1456      C1459   1.274       .  A
O1456     Cd1461   2.441       .  S
C1457      O1466   1.266       .  A
C1457      O1462   1.273   1_554  A
O1458      C1464   1.273       .  A
O1458     Cd1461   2.455   1_554  S
C1459      O1467   1.266       .  A
C1459      C2530   1.470       .  S
C1460      O1465   1.272       .  A
C1460      O1463   1.268       .  A
C1460      C2208   1.486       .  S
Cd1461     O1468   2.429       .  S
Cd1461     O1467   2.369       .  S
Cd1461     O1466   2.394   1_556  S
Cd1461     O1462   2.471       .  S
Cd1461     O1465   2.458       .  S
Cd1461     O1463   2.421       .  S
C1464      O1468   1.263   1_554  A
O1469      C1472   1.273       .  A
O1469     Cd1474   2.452       .  S
C1470      O1479   1.267       .  A
C1470      O1475   1.271       .  A
O1471      C1477   1.275       .  A
O1471     Cd1474   2.474       .  S
C1472      O1480   1.266       .  A
C1472      C2121   1.482       .  S
C1473      O1478   1.272       .  A
C1473      O1476   1.266       .  A
C1473      C2149   1.485       .  S
Cd1474     O1481   2.360       .  S
Cd1474     O1480   2.412       .  S
Cd1474     O1479   2.446       .  S
Cd1474     O1475   2.463       .  S
Cd1474     O1478   2.461       .  S
Cd1474     O1476   2.392       .  S
C1477      O1481   1.264       .  A
C1477      C2135   1.477       .  S
O1482      C1485   1.274       .  A
O1482     Cd1487   2.462       .  S
C1483      O1492   1.267       .  A
C1483      O1488   1.273       .  A
C1483      C2110   1.493       .  S
O1484      C1490   1.273   1_655  A
O1484     Cd1487   2.444       .  S
C1485      O1493   1.265       .  A
C1485      C2320   1.468       .  S
C1486      O1491   1.273       .  A
C1486      O1489   1.268       .  A
C1486      C2152   1.477       .  S
Cd1487     O1494   2.417       .  S
Cd1487     O1493   2.350       .  S
Cd1487     O1492   2.401       .  S
Cd1487     O1488   2.442       .  S
Cd1487     O1491   2.454       .  S
Cd1487     O1489   2.368       .  S
C1490      O1494   1.265   1_455  A
C1490      C2334   1.471       .  S
O1495      C1498   1.271       .  A
C1496      O1505   1.267       .  A
C1496      O1501   1.272       .  A
C1496      C2194   1.486       .  S
O1497      C1503   1.275       .  A
O1497     Cd1500   2.466       .  S
C1498      C2068   1.484       .  S
C1499      O1504   1.272       .  A
C1499      O1502   1.266       .  A
C1499      C2093   1.477       .  S
Cd1500     O1507   2.382       .  S
Cd1500     O1506   2.397       .  S
Cd1500     O1505   2.423       .  S
Cd1500     O1501   2.428       .  S
Cd1500     O1504   2.446       .  S
Cd1500     O1502   2.411       .  S
C1503      O1507   1.265       .  A
C1503      C2079   1.480       .  S
O1508      C1511   1.268       .  A
C1509      O1518   1.264       .  A
C1509      O1514   1.268       .  A
C1509      C2107   1.494       .  S
O1510      C1516   1.268   1_655  A
O1510     Cd1513   2.463       .  S
C1511      O1519   1.277       .  A
C1511      C2471   1.483   1_655  S
C1512      O1515   1.275       .  A
C1512      C2096   1.484       .  S
Cd1513     O1520   2.445   1_655  S
Cd1513     O1518   2.443       .  S
Cd1513     O1514   2.456       .  S
Cd1513     O1517   2.474       .  S
C1516      O1520   1.264       .  A
C1516      C2485   1.489       .  S
O1521      C1524   1.271       .  A
O1521     Cd1526   2.456       .  S
C1522      O1531   1.266       .  A
C1522      O1527   1.270       .  A
C1522      C2037   1.496       .  S
O1523      C1529   1.273       .  A
O1523     Cd1526   2.479       .  S
C1524      O1532   1.265       .  A
C1524      C2572   1.487       .  S
C1525      O1530   1.271       .  A
C1525      O1528   1.264       .  A
C1525      C2054   1.476       .  S
Cd1526     O1533   2.393       .  S
Cd1526     O1532   2.421       .  S
Cd1526     O1531   2.428       .  S
Cd1526     O1527   2.455       .  S
Cd1526     O1530   2.478       .  S
Cd1526     O1528   2.384       .  S
C1529      O1533   1.264       .  A
C1529      C2586   1.482       .  S
O1534      C1537   1.270       .  A
O1534     Cd1539   2.458       .  S
C1535      O1544   1.267       .  A
C1535      O1540   1.268   1_554  A
O1536      C1542   1.272       .  A
O1536     Cd1539   2.461   1_554  S
C1537      O1545   1.263       .  A
C1537      C1998   1.478       .  S
C1538      O1543   1.269       .  A
C1538      O1541   1.265       .  A
C1538      C2051   1.477       .  S
Cd1539     O1546   2.378   1_556  S
Cd1539     O1545   2.416       .  S
Cd1539     O1544   2.449   1_556  S
Cd1539     O1540   2.418       .  S
Cd1539     O1543   2.439       .  S
Cd1539     O1541   2.423       .  S
C1542      O1546   1.263       .  A
O1547      C1550   1.270       .  A
C1548      O1557   1.269       .  A
C1548      O1553   1.271       .  A
C1548      C2040   1.495       .  S
O1549      C1555   1.277       .  A
O1549     Cd1552   2.476       .  S
C1550      O1558   1.265       .  A
C1550      C2457   1.482       .  S
C1551      O1556   1.274       .  A
C1551      O1554   1.264       .  A
C1551      C1981   1.477       .  S
Cd1552     O1559   2.365       .  S
Cd1552     O1557   2.440       .  S
Cd1552     O1553   2.403       .  S
Cd1552     O1556   2.470       .  S
Cd1552     O1554   2.375       .  S
C1555      O1559   1.264       .  A
C1555      C2446   1.490       .  S
O1560      C1563   1.273       .  A
C1561      O1570   1.268       .  A
C1561      O1566   1.275       .  A
C1561      C1970   1.497       .  S
O1562      C1568   1.277       .  A
O1562     Cd1565   2.456       .  S
C1563      O1571   1.264       .  A
C1563      C1953   1.475       .  S
C1564      O1567   1.267       .  A
C1564      C1984   1.484       .  S
Cd1565     O1572   2.403       .  S
Cd1565     O1570   2.389       .  S
Cd1565     O1566   2.440       .  S
Cd1565     O1569   2.446       .  S
C1568      O1572   1.267       .  A
C1568      C1939   1.479       .  S
O1573      C1576   1.270       .  A
O1573     Cd1578   2.476       .  S
C1574      O1583   1.266       .  A
C1574      O1579   1.270       .  A
C1574      C2023   1.496       .  S
O1575      C1581   1.273       .  A
O1575     Cd1578   2.506       .  S
C1576      O1584   1.263       .  A
C1576      C1911   1.481       .  S
C1577      O1582   1.270       .  A
C1577      O1580   1.265       .  A
C1577      C1925   1.484       .  S
Cd1578     O1585   2.381       .  S
Cd1578     O1584   2.418       .  S
Cd1578     O1583   2.436       .  S
Cd1578     O1579   2.452       .  S
Cd1578     O1582   2.463       .  S
Cd1578     O1580   2.444       .  S
C1581      O1585   1.263       .  A
C1581      C1900   1.486       .  S
O1586      C1589   1.270       .  A
O1586     Cd1591   2.461       .  S
C1587      O1596   1.265       .  A
C1587      O1592   1.267       .  A
C1587      C1883   1.482       .  S
O1588      C1594   1.268       .  A
O1588     Cd1591   2.486       .  S
C1589      O1597   1.265       .  A
C1589      C2373   1.488       .  S
C1590      O1595   1.266       .  A
C1590      O1593   1.263       .  A
C1590      C1928   1.483       .  S
Cd1591     O1598   2.418       .  S
Cd1591     O1597   2.409       .  S
Cd1591     O1596   2.449       .  S
Cd1591     O1592   2.438       .  S
Cd1591     O1595   2.470       .  S
Cd1591     O1593   2.437       .  S
C1594      O1598   1.260       .  A
C1594      C2359   1.480       .  S
O1599      C1602   1.276       .  A
O1599     Cd1604   2.472       .  S
C1600      O1609   1.267       .  A
C1600      O1605   1.273       .  A
C1600      C1967   1.501       .  S
O1601      C1607   1.273       .  A
O1601     Cd1604   2.435       .  S
C1602      O1610   1.263       .  A
C1602      C1858   1.482       .  S
C1603      O1608   1.271       .  A
C1603      O1606   1.269       .  A
C1603      C1872   1.478       .  S
Cd1604     O1611   2.403       .  S
Cd1604     O1610   2.363       .  S
Cd1604     O1609   2.404       .  S
Cd1604     O1605   2.468       .  S
Cd1604     O1608   2.440       .  S
Cd1604     O1606   2.416       .  S
C1607      O1611   1.265       .  A
C1607      C1841   1.487       .  S
O1612      C1615   1.271       .  A
O1612     Cd1617   2.468       .  S
C1613      O1622   1.267       .  A
C1613      O1618   1.271       .  A
C1613      C1886   1.494       .  S
O1614      C1620   1.272       .  A
O1614     Cd1617   2.466       .  S
C1615      O1623   1.263       .  A
C1615      C2306   1.487       .  S
C1616      O1621   1.269       .  A
C1616      O1619   1.266       .  A
C1616      C1869   1.476       .  S
Cd1617     O1624   2.370       .  S
Cd1617     O1623   2.415       .  S
Cd1617     O1622   2.436       .  S
Cd1617     O1618   2.445       .  S
Cd1617     O1621   2.444       .  S
Cd1617     O1619   2.421       .  S
C1620      O1624   1.263       .  A
C1620      C2292   1.471       .  S
O1625      C1628   1.268       .  A
O1625     Cd1630   2.435       .  S
C1626      O1635   1.265       .  A
C1626      O1631   1.270       .  A
C1626      C2180   1.479       .  S
O1627      C1633   1.274       .  A
O1627     Cd1630   2.489       .  S
C1628      O1636   1.267       .  A
C1629      O1634   1.271       .  A
C1629      O1632   1.265       .  A
C1629      C1827   1.487       .  S
Cd1630     O1637   2.377       .  S
Cd1630     O1636   2.453       .  S
Cd1630     O1635   2.409       .  S
Cd1630     O1631   2.441       .  S
Cd1630     O1634   2.472       .  S
Cd1630     O1632   2.423       .  S
C1633      O1637   1.262       .  A
O1638      C1641   1.272       .  A
O1638     Cd1643   2.456       .  S
C1639      O1648   1.265       .  A
C1639      O1644   1.273       .  A
C1639      C2012   1.486       .  S
O1640      C1646   1.274       .  A
O1640     Cd1643   2.470       .  S
C1641      O1649   1.266       .  A
C1641      C1799   1.501       .  S
C1642      O1647   1.272       .  A
C1642      O1645   1.266       .  A
C1642      C1830   1.482       .  S
Cd1643     O1650   2.394       .  S
Cd1643     O1649   2.431       .  S
Cd1643     O1648   2.403       .  S
Cd1643     O1644   2.470       .  S
Cd1643     O1647   2.461       .  S
Cd1643     O1645   2.407       .  S
C1646      O1650   1.265       .  A
C1646      C1995   1.479       .  S
O1651      C1654   1.267       .  A
O1651     Cd1656   2.446       .  S
C1652      O1661   1.265       .  A
C1652      O1657   1.272       .  A
C1652      C2236   1.477       .  S
O1653      C1659   1.270       .  A
O1653     Cd1656   2.500       .  S
C1654      O1662   1.267       .  A
C1654      C1771   1.494       .  S
C1655      O1660   1.268       .  A
C1655      O1658   1.264       .  A
C1655      C1788   1.488       .  S
Cd1656     O1663   2.400       .  S
Cd1656     O1662   2.444       .  S
Cd1656     O1660   2.459       .  S
Cd1656     O1658   2.433       .  S
C1659      O1663   1.262       .  A
C1659      C2222   1.480       .  S
O1664      C1667   1.273       .  A
O1664     Cd1669   2.427       .  S
C1665      O1674   1.264       .  A
C1665      O1670   1.272       .  A
C1665      C1897   1.488       .  S
O1666      C1672   1.275       .  A
O1666     Cd1669   2.480       .  S
C1667      O1675   1.268       .  A
C1667      C1802   1.491       .  S
C1668      O1671   1.267       .  A
C1668      C1785   1.486       .  S
Cd1669     O1676   2.381       .  S
Cd1669     O1675   2.420       .  S
Cd1669     O1673   2.445       .  S
C1672      O1676   1.266       .  A
C1672      C1914   1.482       .  S
O1677     Cd1682   2.469       .  S
C1678      O1687   1.264       .  A
C1678      O1683   1.275       .  A
C1678      C1844   1.485   1_655  S
O1679     Cd1682   2.456   1_554  S
C1680      O1688   1.265       .  A
C1680      C1743   1.497       .  S
C1681      O1686   1.270       .  A
C1681      O1684   1.269       .  A
C1681      C1757   1.488       .  S
Cd1682     O1689   2.414       .  S
Cd1682     O1687   2.370       .  S
Cd1682     O1683   2.471       .  S
Cd1682     O1686   2.448       .  S
Cd1682     O1684   2.439       .  S
C1685      C1855   1.479   1_655  S
O1690      C1693   1.268       .  A
O1690     Cd1695   2.446       .  S
C1691      O1700   1.265       .  A
C1691      O1696   1.271       .  A
C1691      C2138   1.490       .  S
O1692      C1698   1.274       .  A
O1692     Cd1695   2.498       .  S
C1693      O1701   1.267       .  A
C1693      C1774   1.495       .  S
C1694      O1699   1.270       .  A
C1694      O1697   1.266       .  A
C1694      C1760   1.494       .  S
Cd1695     O1702   2.392       .  S
Cd1695     O1701   2.459       .  S
Cd1695     O1700   2.410       .  S
Cd1695     O1696   2.455       .  S
Cd1695     O1699   2.476       .  S
Cd1695     O1697   2.445       .  S
C1698      O1702   1.262       .  A
C1698      C2124   1.485       .  S
O1703      C1706   1.273   1_565  A
O1703     Cd1708   2.457   1_565  S
C1704      O1713   1.261       .  A
C1704      O1709   1.272       .  A
C1704      C1942   1.476   1_655  S
O1705      C1711   1.272       .  A
O1705     Cd1708   2.446       .  S
C1706      O1714   1.265       .  A
C1706      C1746   1.496   1_545  S
C1707      O1712   1.268       .  A
C1707      O1710   1.267       .  A
C1707      C1732   1.493       .  S
Cd1708     O1715   2.395       .  S
Cd1708     O1714   2.404       .  S
Cd1708     O1713   2.373       .  S
Cd1708     O1709   2.495       .  S
Cd1708     O1712   2.458       .  S
Cd1708     O1710   2.432       .  S
C1711      O1715   1.265       .  A
C1711      C1956   1.477   1_655  S
O1716      C1719   1.269       .  A
O1716     Cd1721   2.460       .  S
C1717      O1726   1.264       .  A
C1717      O1722   1.271       .  A
C1717      C2082   1.479       .  S
O1718      C1724   1.272       .  A
O1718     Cd1721   2.496       .  S
C1719      O1727   1.266       .  A
C1719      C1813   1.493       .  S
C1720      O1725   1.269       .  A
C1720      O1723   1.265       .  A
C1720      C1729   1.484       .  S
Cd1721     O1728   2.393       .  S
Cd1721     O1727   2.449       .  S
Cd1721     O1726   2.404       .  S
Cd1721     O1722   2.466       .  S
Cd1721     O1725   2.464       .  S
Cd1721     O1723   2.432       .  S
C1724      O1728   1.263       .  A
C1724      C2065   1.485       .  S
C1729      C1730   1.415       .  A
C1729      C1734   1.410       .  A
C1730      C1731   1.411       .  A
C1730      C1735   1.452       .  S
C1731      C1732   1.416       .  A
C1731      C1738   1.452       .  S
C1732      C1733   1.419       .  A
C1733      C1734   1.410       .  A
C1733      C1736   1.450       .  S
C1734      C1737   1.452       .  S
C1735      N1742   1.157       .  T
C1736      N1741   1.157       .  T
C1737      N1739   1.157       .  T
C1738      N1740   1.158       .  T
C1743      C1744   1.413       .  A
C1743      C1748   1.423       .  A
C1744      C1745   1.410       .  A
C1744      C1749   1.454       .  S
C1745      C1746   1.419       .  A
C1745      C1752   1.449   1_565  S
C1746      C1747   1.411       .  A
C1747      C1748   1.411       .  A
C1747      C1750   1.454       .  S
C1748      C1751   1.449       .  S
C1750      N1755   1.156       .  T
C1751      N1753   1.160       .  T
C1752      N1754   1.159       .  T
C1757      C1758   1.415       .  A
C1757      C1762   1.412       .  A
C1758      C1759   1.412       .  A
C1758      C1763   1.453       .  S
C1759      C1760   1.415       .  A
C1759      C1766   1.451       .  S
C1760      C1761   1.419       .  A
C1761      C1762   1.412       .  A
C1761      C1764   1.452       .  S
C1762      C1765   1.452       .  S
C1763      N1770   1.158       .  T
C1764      N1769   1.157       .  T
C1766      N1768   1.157       .  T
C1771      C1772   1.416       .  A
C1771      C1776   1.414       .  A
C1772      C1773   1.411       .  A
C1772      C1777   1.452       .  S
C1773      C1774   1.416       .  A
C1773      C1780   1.452       .  S
C1774      C1775   1.419       .  A
C1775      C1776   1.413       .  A
C1775      C1778   1.452       .  S
C1776      C1779   1.452       .  S
C1777      N1784   1.158       .  T
C1778      N1783   1.158       .  T
C1779      N1781   1.158       .  T
C1780      N1782   1.157       .  T
C1785      C1790   1.417       .  A
C1786      C1787   1.409   1_556  A
C1786      C1791   1.452       .  S
C1787      C1794   1.453   1_554  S
C1788      C1789   1.414       .  A
C1789      C1790   1.409       .  A
C1789      C1792   1.452       .  S
C1790      C1793   1.453       .  S
C1791      N1798   1.157       .  T
C1792      N1797   1.157       .  T
C1793      N1795   1.158       .  T
C1794      N1796   1.158       .  T
C1799      C1800   1.423       .  A
C1799      C1804   1.418   1_545  A
C1800      C1801   1.410   1_545  A
C1800      C1805   1.451       .  S
C1801      C1802   1.409       .  A
C1801      C1808   1.452   1_565  S
C1802      C1803   1.416       .  A
C1803      C1804   1.411       .  A
C1803      C1806   1.452       .  S
C1804      C1807   1.451       .  S
C1805      N1812   1.157       .  T
C1806      N1811   1.158       .  T
C1807      N1809   1.157       .  T
C1808      N1810   1.157       .  T
C1813      C1814   1.416       .  A
C1813      C1818   1.411       .  A
C1814      C1815   1.411       .  A
C1814      C1819   1.452   1_556  S
C1815      C1816   1.417       .  A
C1816      C1817   1.421       .  A
C1817      C1818   1.413       .  A
C1817      C1820   1.451       .  S
C1818      C1821   1.451       .  S
C1819      N1826   1.157       .  T
C1820      N1825   1.157       .  T
C1821      N1823   1.157       .  T
C1822      N1824   1.158       .  T
C1827      C1828   1.416       .  A
C1827      C1832   1.416       .  A
C1828      C1829   1.410       .  A
C1828      C1833   1.452       .  S
C1829      C1830   1.412       .  A
C1829      C1836   1.452       .  S
C1830      C1831   1.412       .  A
C1831      C1832   1.411       .  A
C1831      C1834   1.452       .  S
C1832      C1835   1.451       .  S
C1833      N1840   1.157       .  T
C1834      N1839   1.157       .  T
C1835      N1837   1.157       .  T
C1836      N1838   1.157       .  T
C1841      C1842   1.412       .  A
C1841      C1846   1.422       .  A
C1842      C1843   1.406       .  A
C1842      C1847   1.453       .  S
C1843      C1844   1.419       .  A
C1843      C1850   1.454       .  S
C1844      C1845   1.410       .  A
C1845      C1846   1.411       .  A
C1845      C1848   1.452   1_455  S
C1846      C1849   1.453       .  S
C1847      N1854   1.157       .  T
C1848      N1853   1.157       .  T
C1849      N1851   1.158       .  T
C1850      N1852   1.158       .  T
C1855      C1856   1.415       .  A
C1855      C1860   1.409       .  A
C1856      C1857   1.408       .  A
C1856      C1861   1.452       .  S
C1857      C1858   1.410       .  A
C1857      C1864   1.451       .  S
C1858      C1859   1.420       .  A
C1859      C1860   1.408       .  A
C1859      C1862   1.453       .  S
C1860      C1863   1.452   1_455  S
C1862      N1867   1.157       .  T
C1863      N1865   1.157       .  T
C1864      N1866   1.157       .  T
C1869      C1870   1.411       .  A
C1869      C1874   1.412       .  A
C1870      C1871   1.408       .  A
C1870      C1875   1.451       .  S
C1871      C1872   1.411       .  A
C1871      C1878   1.451       .  S
C1872      C1873   1.414       .  A
C1873      C1874   1.409       .  A
C1873      C1876   1.452       .  S
C1874      C1877   1.452       .  S
C1875      N1882   1.157       .  T
C1876      N1881   1.157       .  T
C1877      N1879   1.157       .  T
C1878      N1880   1.157       .  T
C1883      C1884   1.414       .  A
C1883      C1888   1.415       .  A
C1884      C1885   1.403       .  A
C1884      C1889   1.452       .  S
C1885      C1892   1.453       .  S
C1887      C1888   1.414       .  A
C1888      C1891   1.450       .  S
C1889      N1896   1.157       .  T
C1890      N1895   1.158       .  T
C1891      N1893   1.157       .  T
C1897      C1898   1.419       .  A
C1897      C1902   1.413       .  A
C1898      C1899   1.414       .  A
C1898      C1903   1.452       .  S
C1899      C1900   1.413       .  A
C1899      C1906   1.451       .  S
C1900      C1901   1.414       .  A
C1901      C1902   1.407       .  A
C1901      C1904   1.453       .  S
C1902      C1905   1.452       .  S
C1903      N1910   1.158       .  T
C1904      N1909   1.157       .  T
C1905      N1907   1.157       .  T
C1906      N1908   1.157       .  T
C1911      C1912   1.408       .  A
C1911      C1916   1.417       .  A
C1912      C1913   1.407       .  A
C1912      C1917   1.452       .  S
C1913      C1914   1.416       .  A
C1913      C1920   1.450       .  S
C1914      C1915   1.410       .  A
C1915      C1916   1.412       .  A
C1915      C1918   1.451       .  S
C1916      C1919   1.452       .  S
C1917      N1924   1.157       .  T
C1918      N1923   1.157       .  T
C1919      N1921   1.157       .  T
C1920      N1922   1.156       .  T
C1925      C1926   1.415       .  A
C1925      C1930   1.413       .  A
C1926      C1927   1.411       .  A
C1926      C1931   1.451       .  S
C1927      C1928   1.413       .  A
C1927      C1934   1.452       .  S
C1928      C1929   1.414       .  A
C1929      C1930   1.409       .  A
C1929      C1932   1.452       .  S
C1930      C1933   1.452       .  S
C1931      N1938   1.157       .  T
C1932      N1937   1.157       .  T
C1933      N1935   1.157       .  T
C1934      N1936   1.158       .  T
C1939      C1940   1.415       .  A
C1939      C1944   1.410       .  A
C1940      C1941   1.410       .  A
C1940      C1945   1.449       .  S
C1941      C1942   1.407       .  A
C1941      C1948   1.450   1_455  S
C1942      C1943   1.414       .  A
C1943      C1944   1.408       .  A
C1943      C1946   1.452       .  S
C1944      C1947   1.451       .  S
C1945      N1952   1.156       .  T
C1946      N1951   1.157       .  T
C1947      N1949   1.157       .  T
C1948      N1950   1.157       .  T
C1953      C1954   1.413       .  A
C1953      C1958   1.410       .  A
C1954      C1955   1.408       .  A
C1954      C1959   1.452       .  S
C1955      C1956   1.413       .  A
C1955      C1962   1.452       .  S
C1956      C1957   1.414       .  A
C1957      C1958   1.407       .  A
C1957      C1960   1.453   1_455  S
C1958      C1961   1.451       .  S
C1959      N1966   1.157       .  T
C1960      N1965   1.158   1_545  T
C1961      N1963   1.157   1_545  T
C1962      N1964   1.157       .  T
C1967      C1968   1.421       .  A
C1967      C1972   1.417   1_565  A
C1968      C1969   1.411       .  A
C1968      C1973   1.451       .  S
C1969      C1970   1.412   1_565  A
C1969      C1976   1.452       .  S
C1970      C1971   1.419       .  A
C1971      C1972   1.412       .  A
C1971      C1974   1.452       .  S
C1972      C1975   1.451       .  S
C1973      N1980   1.158       .  T
C1974      N1979   1.158       .  T
C1975      N1977   1.157       .  T
C1976      N1978   1.157       .  T
C1981      C1982   1.412       .  A
C1981      C1986   1.411       .  A
C1983      C1990   1.453       .  S
C1984      C1985   1.417       .  A
C1985      C1986   1.411       .  A
C1985      C1988   1.451       .  S
C1986      C1989   1.452       .  S
C1987      N1994   1.157       .  T
C1988      N1993   1.157       .  T
C1989      N1991   1.157       .  T
C1990      N1992   1.157   1_554  T
C1995      C1996   1.410       .  A
C1995      C2000   1.415       .  A
C1996      C1997   1.410       .  A
C1996      C2001   1.451       .  S
C1997      C1998   1.415       .  A
C1997      C2004   1.452       .  S
C1998      C1999   1.410       .  A
C1999      C2000   1.408       .  A
C1999      C2002   1.452       .  S
C2000      C2003   1.451       .  S
C2001      N2008   1.157       .  T
C2002      N2007   1.157       .  T
C2003      N2005   1.157       .  T
C2004      N2006   1.157       .  T
C2009      C2010   1.416       .  A
C2010      C2011   1.409       .  A
C2010      C2015   1.454       .  S
C2011      C2012   1.414       .  A
C2011      C2018   1.452       .  S
C2012      C2013   1.416       .  A
C2013      C2016   1.451       .  S
C2014      C2017   1.453       .  S
C2015      N2022   1.157       .  T
C2017      N2019   1.157       .  T
C2018      N2020   1.157       .  T
C2023      C2024   1.414   1_565  A
C2023      C2028   1.419       .  A
C2024      C2025   1.410       .  A
C2024      C2029   1.452       .  S
C2025      C2026   1.419       .  A
C2025      C2032   1.453       .  S
C2026      C2027   1.412   1_545  A
C2027      C2028   1.411       .  A
C2027      C2030   1.452       .  S
C2028      C2031   1.451       .  S
C2029      N2036   1.158       .  T
C2031      N2033   1.157       .  T
C2032      N2034   1.157       .  T
C2037      C2038   1.416       .  A
C2037      C2042   1.420       .  A
C2038      C2039   1.412       .  A
C2038      C2043   1.452       .  S
C2039      C2040   1.418       .  A
C2039      C2046   1.452       .  S
C2040      C2041   1.413       .  A
C2041      C2042   1.409       .  A
C2041      C2044   1.453       .  S
C2042      C2045   1.451       .  S
C2043      N2050   1.158       .  T
C2044      N2049   1.157       .  T
C2045      N2047   1.157       .  T
C2046      N2048   1.158       .  T
C2051      C2052   1.411       .  A
C2051      C2056   1.415       .  A
C2052      C2053   1.407       .  A
C2052      C2057   1.451       .  S
C2053      C2054   1.413       .  A
C2053      C2060   1.452       .  S
C2054      C2055   1.411       .  A
C2055      C2056   1.409       .  A
C2055      C2058   1.451       .  S
C2056      C2059   1.452       .  S
C2057      N2064   1.157       .  T
C2058      N2063   1.157       .  T
C2059      N2061   1.157       .  T
C2060      N2062   1.157       .  T
C2065      C2066   1.415       .  A
C2065      C2070   1.414       .  A
C2066      C2067   1.406   1_556  A
C2066      C2071   1.453       .  S
C2067      C2068   1.413       .  A
C2067      C2074   1.453       .  S
C2068      C2069   1.416       .  A
C2069      C2070   1.413   1_554  A
C2069      C2072   1.452       .  S
C2070      C2073   1.451       .  S
C2071      N2078   1.157       .  T
C2072      N2077   1.158       .  T
C2073      N2075   1.157       .  T
C2074      N2076   1.157       .  T
C2079      C2080   1.417       .  A
C2079      C2084   1.409       .  A
C2080      C2081   1.409       .  A
C2080      C2085   1.451       .  S
C2081      C2082   1.409       .  A
C2081      C2088   1.452       .  S
C2082      C2083   1.416       .  A
C2083      C2084   1.408       .  A
C2083      C2086   1.451       .  S
C2084      C2087   1.451       .  S
C2085      N2092   1.157       .  T
C2086      N2091   1.157       .  T
C2087      N2089   1.157       .  T
C2088      N2090   1.158       .  T
C2093      C2094   1.413       .  A
C2093      C2098   1.408       .  A
C2094      C2095   1.414       .  A
C2094      C2099   1.451       .  S
C2095      C2096   1.414       .  A
C2095      C2102   1.450       .  S
C2096      C2097   1.416       .  A
C2097      C2098   1.404       .  A
C2097      C2100   1.453       .  S
C2098      C2101   1.451       .  S
C2099      N2106   1.158       .  T
C2100      N2105   1.157       .  T
C2101      N2103   1.157       .  T
C2102      N2104   1.157       .  T
C2107      C2108   1.416       .  A
C2107      C2112   1.420       .  A
C2108      C2109   1.409       .  A
C2108      C2113   1.451       .  S
C2109      C2110   1.415       .  A
C2109      C2116   1.451       .  S
C2110      C2111   1.411       .  A
C2111      C2112   1.410       .  A
C2111      C2114   1.451       .  S
C2112      C2115   1.450       .  S
C2113      N2120   1.158       .  T
C2114      N2119   1.157       .  T
C2115      N2117   1.157       .  T
C2116      N2118   1.158       .  T
C2121      C2122   1.417       .  A
C2121      C2126   1.408       .  A
C2122      C2123   1.411       .  A
C2122      C2127   1.450       .  S
C2123      C2124   1.410       .  A
C2123      C2130   1.451       .  S
C2124      C2125   1.418       .  A
C2125      C2126   1.408       .  A
C2125      C2128   1.450       .  S
C2126      C2129   1.453       .  S
C2127      N2134   1.157       .  T
C2128      N2133   1.156       .  T
C2129      N2131   1.158       .  T
C2130      N2132   1.157       .  T
C2135      C2136   1.410       .  A
C2135      C2140   1.415       .  A
C2136      C2141   1.451       .  S
C2137      C2138   1.419       .  A
C2137      C2144   1.452       .  S
C2138      C2139   1.418       .  A
C2139      C2142   1.453       .  S
C2140      C2143   1.453       .  S
C2141      N2148   1.157       .  T
C2142      N2147   1.158       .  T
C2143      N2145   1.157       .  T
C2144      N2146   1.157       .  T
C2149      C2150   1.415       .  A
C2149      C2154   1.417       .  A
C2150      C2151   1.405       .  A
C2150      C2155   1.452       .  S
C2151      C2152   1.410       .  A
C2151      C2158   1.453       .  S
C2152      C2153   1.412       .  A
C2153      C2154   1.411       .  A
C2153      C2156   1.452       .  S
C2154      C2157   1.451       .  S
C2155      N2162   1.157       .  T
C2156      N2161   1.158       .  T
C2157      N2159   1.157       .  T
C2158      N2160   1.157       .  T
C2163      C2164   1.413       .  A
C2164      C2165   1.406       .  A
C2164      C2169   1.453       .  S
C2165      C2166   1.413       .  A
C2165      C2172   1.452       .  S
C2166      C2167   1.415       .  A
C2168      C2171   1.453       .  S
C2169      N2176   1.158       .  T
C2170      N2175   1.157       .  T
C2171      N2173   1.157       .  T
C2172      N2174   1.157       .  T
C2177      C2178   1.414       .  A
C2177      C2182   1.412       .  A
C2178      C2179   1.409       .  A
C2178      C2183   1.453       .  S
C2179      C2180   1.414       .  A
C2179      C2186   1.452       .  S
C2180      C2181   1.413       .  A
C2181      C2182   1.408       .  A
C2181      C2184   1.452       .  S
C2182      C2185   1.452       .  S
C2183      N2190   1.158       .  T
C2184      N2189   1.157       .  T
C2185      N2187   1.157       .  T
C2186      N2188   1.157       .  T
C2191      C2192   1.418       .  A
C2191      C2196   1.420       .  A
C2192      C2193   1.410       .  A
C2192      C2197   1.452       .  S
C2193      C2194   1.415       .  A
C2193      C2200   1.452       .  S
C2194      C2195   1.411       .  A
C2195      C2196   1.410       .  A
C2195      C2198   1.452       .  S
C2196      C2199   1.450       .  S
C2197      N2204   1.157       .  T
C2198      N2203   1.157       .  T
C2199      N2201   1.157       .  T
C2200      N2202   1.157       .  T
C2205      C2206   1.413       .  A
C2205      C2210   1.414       .  A
C2206      C2207   1.412       .  A
C2206      C2211   1.451       .  S
C2207      C2208   1.415       .  A
C2207      C2214   1.451       .  S
C2208      C2209   1.413       .  A
C2209      C2210   1.411       .  A
C2209      C2212   1.452       .  S
C2210      C2213   1.451       .  S
C2211      N2218   1.157       .  T
C2212      N2217   1.157       .  T
C2213      N2215   1.157       .  T
C2214      N2216   1.157       .  T
C2219      C2220   1.416       .  A
C2219      C2224   1.414       .  A
C2220      C2221   1.412       .  A
C2220      C2225   1.451       .  S
C2221      C2222   1.411       .  A
C2221      C2228   1.451       .  S
C2222      C2223   1.411       .  A
C2223      C2224   1.408       .  A
C2223      C2226   1.451       .  S
C2224      C2227   1.452       .  S
C2225      N2232   1.157       .  T
C2226      N2231   1.157       .  T
C2227      N2229   1.158       .  T
C2228      N2230   1.157       .  T
C2233      C2234   1.412   1_556  A
C2233      C2238   1.413       .  A
C2234      C2235   1.405       .  A
C2234      C2239   1.450       .  S
C2235      C2236   1.409       .  A
C2235      C2242   1.452       .  S
C2236      C2237   1.413       .  A
C2237      C2238   1.412   1_554  A
C2238      C2241   1.451       .  S
C2239      N2246   1.156       .  T
C2240      N2245   1.157       .  T
C2241      N2243   1.157       .  T
C2242      N2244   1.157       .  T
C2247      C2248   1.416       .  A
C2247      C2252   1.412       .  A
C2248      C2249   1.411       .  A
C2248      C2253   1.451       .  S
C2249      C2250   1.415       .  A
C2250      C2251   1.419       .  A
C2251      C2252   1.410       .  A
C2251      C2254   1.451       .  S
C2252      C2255   1.452       .  S
C2253      N2260   1.158   1_556  T
C2254      N2259   1.158       .  T
C2255      N2257   1.157       .  T
C2256      N2258   1.157       .  T
C2261      C2262   1.424       .  A
C2261      C2266   1.415       .  A
C2262      C2263   1.412       .  A
C2262      C2267   1.452       .  S
C2263      C2264   1.412       .  A
C2263      C2270   1.452       .  S
C2264      C2265   1.417       .  A
C2265      C2266   1.413       .  A
C2265      C2268   1.451       .  S
C2266      C2269   1.450       .  S
C2267      N2274   1.158       .  T
C2268      N2273   1.157       .  T
C2269      N2271   1.157       .  T
C2275      C2276   1.411       .  A
C2275      C2280   1.413       .  A
C2276      C2277   1.409       .  A
C2276      C2281   1.452       .  S
C2277      C2278   1.416       .  A
C2277      C2284   1.452       .  S
C2278      C2279   1.411       .  A
C2279      C2280   1.407       .  A
C2279      C2282   1.451       .  S
C2280      C2283   1.452       .  S
C2281      N2288   1.157       .  T
C2282      N2287   1.157       .  T
C2283      N2285   1.157       .  T
C2284      N2286   1.158       .  T
C2289      C2290   1.415       .  A
C2290      C2291   1.411       .  A
C2290      C2295   1.450       .  S
C2291      C2298   1.452       .  S
C2292      C2293   1.411       .  A
C2293      C2294   1.408       .  A
C2293      C2296   1.452       .  S
C2294      C2297   1.452       .  S
C2295      N2302   1.156       .  T
C2296      N2301   1.157       .  T
C2297      N2299   1.157       .  T
C2298      N2300   1.157       .  T
C2303      C2304   1.414       .  A
C2303      C2308   1.411       .  A
C2304      C2305   1.407       .  A
C2304      C2309   1.453       .  S
C2305      C2306   1.414       .  A
C2305      C2312   1.452       .  S
C2306      C2307   1.418       .  A
C2307      C2308   1.411       .  A
C2307      C2310   1.451       .  S
C2308      C2311   1.452       .  S
C2309      N2316   1.157       .  T
C2310      N2315   1.157       .  T
C2311      N2313   1.157       .  T
C2312      N2314   1.157       .  T
C2317      C2322   1.416       .  A
C2318      C2323   1.451   1_554  S
C2319      C2320   1.411       .  A
C2319      C2326   1.452       .  S
C2320      C2321   1.408   1_655  A
C2321      C2322   1.407       .  A
C2321      C2324   1.452       .  S
C2322      C2325   1.451       .  S
C2323      N2330   1.157       .  T
C2324      N2329   1.157       .  T
C2325      N2327   1.157       .  T
C2331      C2332   1.411       .  A
C2331      C2336   1.413       .  A
C2332      C2333   1.405       .  A
C2332      C2337   1.452       .  S
C2333      C2334   1.408       .  A
C2333      C2340   1.450   1_455  S
C2334      C2335   1.409       .  A
C2335      C2336   1.411       .  A
C2335      C2338   1.451       .  S
C2336      C2339   1.450       .  S
C2337      N2344   1.157       .  T
C2338      N2343   1.158       .  T
C2339      N2341   1.157       .  T
C2340      N2342   1.156       .  T
C2345      C2346   1.409       .  A
C2345      C2350   1.412       .  A
C2346      C2347   1.409       .  A
C2346      C2351   1.451       .  S
C2347      C2348   1.418       .  A
C2347      C2354   1.452       .  S
C2348      C2349   1.414       .  A
C2349      C2350   1.409       .  A
C2349      C2352   1.451       .  S
C2350      C2353   1.453       .  S
C2351      N2358   1.157       .  T
C2352      N2357   1.157       .  T
C2353      N2355   1.157       .  T
C2354      N2356   1.157       .  T
C2359      C2360   1.412       .  A
C2359      C2364   1.414       .  A
C2360      C2361   1.408       .  A
C2360      C2365   1.452       .  S
C2361      C2362   1.413   1_556  A
C2361      C2368   1.452       .  S
C2362      C2363   1.413       .  A
C2363      C2364   1.410   1_554  A
C2364      C2367   1.452       .  S
C2365      N2372   1.157       .  T
C2366      N2371   1.157       .  T
C2367      N2369   1.158       .  T
C2368      N2370   1.157       .  T
C2373      C2374   1.415       .  A
C2373      C2378   1.419       .  A
C2374      C2375   1.406       .  A
C2374      C2379   1.452       .  S
C2375      C2376   1.416       .  A
C2375      C2382   1.455       .  S
C2376      C2377   1.412       .  A
C2377      C2378   1.411       .  A
C2377      C2380   1.451       .  S
C2378      C2381   1.452       .  S
C2379      N2386   1.157       .  T
C2380      N2385   1.157       .  T
C2381      N2383   1.157       .  T
C2382      N2384   1.158       .  T
C2387      C2388   1.416       .  A
C2387      C2392   1.409       .  A
C2388      C2389   1.411       .  A
C2388      C2393   1.453       .  S
C2389      C2390   1.418       .  A
C2389      C2396   1.452       .  S
C2390      C2391   1.422       .  A
C2391      C2392   1.412       .  A
C2391      C2394   1.451       .  S
C2392      C2395   1.452       .  S
C2393      N2400   1.158       .  T
C2394      N2399   1.158       .  T
C2395      N2397   1.157       .  T
C2396      N2398   1.157       .  T
C2401      C2402   1.412       .  A
C2401      C2406   1.411       .  A
C2402      C2403   1.405       .  A
C2402      C2407   1.452       .  S
C2403      C2404   1.411       .  A
C2403      C2410   1.453       .  S
C2404      C2405   1.413       .  A
C2405      C2406   1.408       .  A
C2405      C2408   1.452       .  S
C2406      C2409   1.451       .  S
C2407      N2414   1.157       .  T
C2408      N2413   1.157       .  T
C2409      N2411   1.157       .  T
C2410      N2412   1.157       .  T
C2415      C2416   1.412       .  A
C2415      C2420   1.412       .  A
C2416      C2417   1.407       .  A
C2416      C2421   1.452       .  S
C2417      C2418   1.409       .  A
C2417      C2424   1.451       .  S
C2418      C2419   1.411       .  A
C2419      C2420   1.412       .  A
C2419      C2422   1.451       .  S
C2420      C2423   1.450       .  S
C2421      N2428   1.157       .  T
C2422      N2427   1.157       .  T
C2423      N2425   1.157       .  T
C2424      N2426   1.157       .  T
C2429      C2434   1.415       .  A
C2430      C2435   1.452       .  S
C2431      C2432   1.413       .  A
C2432      C2433   1.412       .  A
C2433      C2434   1.409       .  A
C2433      C2436   1.452       .  S
C2434      C2437   1.452       .  S
C2435      N2442   1.157       .  T
C2436      N2441   1.157       .  T
C2437      N2439   1.157       .  T
C2438      N2440   1.157       .  T
C2443      C2444   1.410       .  A
C2443      C2448   1.414       .  A
C2444      C2445   1.408       .  A
C2444      C2449   1.454       .  S
C2445      C2446   1.423       .  A
C2445      C2452   1.454       .  S
C2446      C2447   1.414       .  A
C2447      C2448   1.410       .  A
C2447      C2450   1.451       .  S
C2448      C2451   1.452       .  S
C2449      N2456   1.158       .  T
C2450      N2455   1.157       .  T
C2451      N2453   1.157       .  T
C2452      N2454   1.158       .  T
C2457      C2458   1.415       .  A
C2457      C2462   1.418       .  A
C2458      C2459   1.405       .  A
C2459      C2460   1.411   1_554  A
C2459      C2466   1.454       .  S
C2460      C2461   1.410       .  A
C2461      C2462   1.408   1_556  A
C2461      C2464   1.452       .  S
C2462      C2465   1.451       .  S
C2463      N2470   1.158       .  T
C2464      N2469   1.157       .  T
C2465      N2467   1.157       .  T
C2466      N2468   1.158       .  T
C2471      C2472   1.414       .  A
C2471      C2476   1.417       .  A
C2472      C2473   1.405       .  A
C2472      C2477   1.448   1_455  S
C2473      C2474   1.407       .  A
C2473      C2480   1.452       .  S
C2474      C2475   1.412       .  A
C2475      C2476   1.416       .  A
C2475      C2478   1.450       .  S
C2476      C2479   1.451       .  S
C2477      N2484   1.157       .  T
C2478      N2483   1.157       .  T
C2480      N2482   1.157       .  T
C2485      C2486   1.418       .  A
C2485      C2490   1.415       .  A
C2486      C2487   1.412       .  A
C2486      C2491   1.451       .  S
C2487      C2488   1.412       .  A
C2487      C2494   1.451       .  S
C2488      C2489   1.413       .  A
C2489      C2490   1.410       .  A
C2489      C2492   1.452       .  S
C2490      C2493   1.452   1_455  S
C2492      N2497   1.157       .  T
C2493      N2495   1.157       .  T
C2494      N2496   1.157       .  T
C2499      C2500   1.408       .  A
C2499      C2504   1.417       .  A
C2500      C2501   1.411       .  A
C2500      C2505   1.450       .  S
C2501      C2502   1.420       .  A
C2501      C2508   1.450       .  S
C2502      C2503   1.417       .  A
C2503      C2504   1.408       .  A
C2503      C2506   1.454       .  S
C2504      C2507   1.453       .  S
C2506      N2511   1.158       .  T
C2507      N2509   1.158       .  T
C2508      N2510   1.157       .  T
C2513      C2514   1.416       .  A
C2513      C2518   1.421       .  A
C2514      C2515   1.408       .  A
C2514      C2519   1.452       .  S
C2515      C2516   1.413       .  A
C2515      C2522   1.453       .  S
C2516      C2517   1.406       .  A
C2517      C2518   1.407       .  A
C2517      C2520   1.453       .  S
C2518      C2521   1.451       .  S
C2519      N2526   1.157       .  T
C2520      N2525   1.157       .  T
C2521      N2523   1.157       .  T
C2522      N2524   1.157       .  T
C2527      C2528   1.411       .  A
C2527      C2532   1.415       .  A
C2528      C2529   1.408       .  A
C2528      C2533   1.451       .  S
C2529      C2530   1.412       .  A
C2529      C2536   1.451       .  S
C2530      C2531   1.409       .  A
C2531      C2532   1.405       .  A
C2531      C2534   1.453       .  S
C2532      C2535   1.450       .  S
C2533      N2540   1.157       .  T
C2534      N2539   1.157       .  T
C2535      N2537   1.156       .  T
C2536      N2538   1.157       .  T
C2541      C2542   1.408       .  A
C2541      C2546   1.410       .  A
C2542      C2547   1.450       .  S
C2543      C2550   1.450   1_554  S
C2544      C2545   1.410       .  A
C2545      C2546   1.405       .  A
C2545      C2548   1.451       .  S
C2546      C2549   1.452       .  S
C2547      N2554   1.157       .  T
C2548      N2553   1.157       .  T
C2549      N2551   1.157       .  T
C2550      N2552   1.157       .  T
C2555      C2556   1.413       .  A
C2555      C2560   1.416       .  A
C2556      C2557   1.409       .  A
C2556      C2561   1.452       .  S
C2557      C2558   1.421       .  A
C2557      C2564   1.453       .  S
C2558      C2559   1.412       .  A
C2559      C2560   1.412       .  A
C2559      C2562   1.451       .  S
C2560      C2563   1.451       .  S
C2561      N2568   1.157       .  T
C2562      N2567   1.157       .  T
C2563      N2565   1.157       .  T
C2564      N2566   1.158       .  T
C2569      C2570   1.412       .  A
C2569      C2574   1.410       .  A
C2570      C2575   1.454       .  S
C2571      C2572   1.414       .  A
C2571      C2578   1.453       .  S
C2572      C2573   1.416       .  A
C2573      C2576   1.451       .  S
C2574      C2577   1.452       .  S
C2575      N2582   1.158       .  T
C2576      N2581   1.157       .  T
C2577      N2579   1.157       .  T
C2578      N2580   1.158       .  T
C2583      C2584   1.418       .  A
C2583      C2588   1.410       .  A
C2584      C2585   1.410       .  A
C2584      C2589   1.451       .  S
C2585      C2586   1.410       .  A
C2585      C2592   1.452       .  S
C2586      C2587   1.416       .  A
C2587      C2588   1.409       .  A
C2587      C2590   1.451       .  S
C2588      C2591   1.452       .  S
C2589      N2596   1.157       .  T
C2590      N2595   1.157       .  T
C2591      N2593   1.157       .  T
C2592      N2594   1.157       .  T
C2597      C2598   1.414       .  A
C2597      C2602   1.418       .  A
C2598      C2599   1.409       .  A
C2598      C2603   1.453       .  S
C2599      C2600   1.417       .  A
C2599      C2606   1.451       .  S
C2600      C2601   1.413       .  A
C2601      C2602   1.412       .  A
C2602      C2605   1.450       .  S
C2603      N2610   1.157       .  T
C2604      N2609   1.157       .  T
C2605      N2607   1.158       .  T
C2606      N2608   1.157       .  T
C2611      C2612   1.414       .  A
C2611      C2616   1.417       .  A
C2612      C2613   1.409       .  A
C2612      C2617   1.451       .  S
C2613      C2614   1.411       .  A
C2613      C2620   1.453       .  S
C2614      C2615   1.409       .  A
C2615      C2616   1.408       .  A
C2615      C2618   1.452       .  S
C2616      C2619   1.452       .  S
C2617      N2624   1.157       .  T
C2618      N2623   1.157       .  T
C2619      N2621   1.157       .  T
C2620      N2622   1.157       .  T
