geometry optimzed in LAMMPS
_audit_creation_date              2020-12-01 
_audit_creation_method            'lammps2cif' 
_symmetry_space_group_name_H-M    'P1' 
_symmetry_Int_Tables_number       1 
_symmetry_cell_setting            triclinic 
loop_ 
_symmetry_equiv_pos_as_xyz 
  x,y,z 
_cell_length_a                    52.25631167 
_cell_length_b                    52.36738461728399 
_cell_length_c                    52.32971418040563 
_cell_angle_alpha                 89.95934666692028 
_cell_angle_beta                  89.99328073295084 
_cell_angle_gamma                 89.9755520356745 
loop_ 
_atom_site_label 
_atom_site_type_symbol 
_atom_site_fract_x 
_atom_site_fract_y 
_atom_site_fract_z 
_atom_site_charge 
O1          O  0.76490277  0.53270336  0.72313057    -0.71300
O2          O  0.73443898  0.47788027  0.75974318    -0.71600
O3          O  0.73210747  0.52931046  0.76240619    -0.71400
O4          O  0.76680465  0.48153280  0.72040908    -0.71400
O5          O  0.79866317  0.48087557  0.74680387    -0.71400
O6          O  0.76402195  0.52967880  0.78877024    -0.71400
O7          O  0.76620960  0.47804687  0.78635304    -0.71400
O8          O  0.79693767  0.53213879  0.74940085    -0.71500
V9          V  0.75015607  0.50537822  0.74198166     1.35200
V10         V  0.78082743  0.50522317  0.76737381     1.35200
C11         C  0.78629449  0.54171239  0.72999137     0.77900
C12         C  0.74546679  0.46813070  0.77892441     0.77900
C13         C  0.74213456  0.53808331  0.78257354     0.77800
C14         C  0.78848603  0.47273966  0.72636388     0.77800
O15         O  0.45335504  0.78912406  0.75941627    -0.71300
O16         O  0.40468727  0.83003097  0.72440433    -0.71600
O17         O  0.45566927  0.82573429  0.72349011    -0.71400
O18         O  0.40225107  0.79345835  0.76012904    -0.71400
O19         O  0.40479366  0.82219589  0.78977843    -0.71400
O20         O  0.45880763  0.85452137  0.75305394    -0.71400
O21         O  0.40761019  0.85889765  0.75392074    -0.71400
O22         O  0.45614823  0.81774310  0.78918051    -0.71500
V23         V  0.42906323  0.81014951  0.74247123     1.35200
V24         V  0.43181638  0.83779280  0.77095263     1.35200
C25         C  0.46313937  0.79637783  0.78026859     0.77900
C26         C  0.39779540  0.85147034  0.73314529     0.77900
C27         C  0.46632132  0.84569325  0.73180274     0.77800
C28         C  0.39412638  0.80232780  0.78102684     0.77800
O29         O  0.76806222  0.79804547  0.45917617    -0.71300
O30         O  0.73153241  0.83240749  0.40684041    -0.71600
O31         O  0.76843036  0.79722456  0.40787678    -0.71400
O32         O  0.73094896  0.83330893  0.45801891    -0.71400
O33         O  0.75911491  0.86364601  0.45736736    -0.71400
O34         O  0.79744545  0.82674525  0.40808624    -0.71400
O35         O  0.76052859  0.86195260  0.40614732    -0.71400
O36         O  0.79632227  0.82825042  0.45942121    -0.71500
V37         V  0.75031015  0.81581318  0.43301994     1.35200
V38         V  0.77782614  0.84457655  0.43280570     1.35200
C39         C  0.78842272  0.80722725  0.46835556     0.77900
C40         C  0.73994094  0.85295999  0.39731970     0.77900
C41         C  0.78916951  0.80596974  0.39906327     0.77800
C42         C  0.73830608  0.85481510  0.46600079     0.77800
C43         C  0.26964555  0.95082573  0.23708921     0.03600
C44         C  0.26966177  0.97766761  0.23690866    -0.12600
C45         C  0.25710557  0.99181157  0.25629752     0.01100
C46         C  0.24326888  0.97798718  0.27492201    -0.11100
C47         C  0.24181991  0.95130016  0.27410652     0.03600
C48         C  0.25508170  0.93784039  0.25530103    -0.10500
H49         H  0.27987235  0.98704485  0.22163363     0.09100
H50         H  0.23374379  0.98748038  0.29054820     0.06700
H51         H  0.25470773  0.91713442  0.25537642     0.06500
C52         C  0.24594391  0.06149858  0.27633915     0.03600
C53         C  0.26594499  0.07378753  0.26361516    -0.12600
C54         C  0.28252596  0.06004922  0.24780336     0.01100
C55         C  0.27939372  0.03355924  0.24526566    -0.11100
C56         C  0.25941401  0.02049211  0.25794303     0.03600
C57         C  0.24236193  0.03514637  0.27303787    -0.10500
H58         H  0.26860294  0.09418015  0.26603514     0.09100
H59         H  0.29291809  0.02350538  0.23340063     0.06700
H60         H  0.22631046  0.02646735  0.28267189     0.06500
O61         O  0.41344881  0.21013788  0.10749190    -0.71300
O62         O  0.46855486  0.17562102  0.13971811    -0.71600
O63         O  0.46464798  0.21173659  0.10352903    -0.71400
O64         O  0.41758366  0.17418332  0.14374125    -0.71400
O65         O  0.41610006  0.14474170  0.11468947    -0.71400
O66         O  0.46337806  0.18250172  0.07430693    -0.71400
O67         O  0.46721971  0.14630965  0.11059748    -0.71400
O68         O  0.41210121  0.18081855  0.07836489    -0.71500
V69         V  0.44104415  0.19237103  0.12301952     1.35200
V70         V  0.43973259  0.16416057  0.09501594     1.35200
C71         C  0.40326282  0.20140397  0.08742868     0.77900
C72         C  0.47717284  0.15489548  0.13088184     0.77900
C73         C  0.47208375  0.20369136  0.08204043     0.77800
C74         C  0.40880200  0.15301406  0.13618572     0.77800
C75         C  0.60014000  0.93895465  0.23150691     0.03600
C76         C  0.61805642  0.92554400  0.24609534    -0.12600
C77         C  0.63652376  0.93883331  0.26008336     0.01100
C78         C  0.63744349  0.96551529  0.25880047    -0.11100
C79         C  0.61865460  0.97954876  0.24550561     0.03600
C80         C  0.59992673  0.96572084  0.23181462    -0.10500
H81         H  0.61712020  0.90488998  0.24715118     0.09100
H82         H  0.65277444  0.97495019  0.26890529     0.06700
H83         H  0.58462616  0.97527533  0.22180856     0.06500
C84         C  0.60214712  0.04940154  0.23157729     0.03600
C85         C  0.61577701  0.06200274  0.25078010    -0.12600
C86         C  0.63040398  0.04804912  0.26826908     0.01100
C87         C  0.63058006  0.02134008  0.26699448    -0.11100
C88         C  0.61799768  0.00820919  0.24701774     0.03600
C89         C  0.60419642  0.02283726  0.22904133    -0.10500
H90         H  0.61455772  0.08260314  0.25247027     0.09100
H91         H  0.64061802  0.01121762  0.28192097     0.06700
H92         H  0.59461569  0.01398638  0.21308705     0.06500
O93         O  0.76576638  0.20089236  0.45710040    -0.71300
O94         O  0.72553045  0.16412765  0.40944486    -0.71600
O95         O  0.72658348  0.16780130  0.46042473    -0.71400
O96         O  0.76455452  0.19715388  0.40617161    -0.71400
O97         O  0.79212529  0.16636230  0.40829211    -0.71400
O98         O  0.75284667  0.13572421  0.46138541    -0.71400
O99         O  0.75289308  0.13306588  0.41018545    -0.71400
O100        O  0.79222055  0.16905216  0.45963498    -0.71500
V101        V  0.74615033  0.18186738  0.43333760     1.35200
V102        V  0.77202924  0.15163013  0.43488214     1.35200
C103        C  0.78599317  0.19142733  0.46632872     0.77900
C104        C  0.73235843  0.14244281  0.40141609     0.77900
C105        C  0.73295399  0.14656537  0.46993981     0.77800
C106        C  0.78495273  0.18702194  0.39800814     0.77800
C107        C  0.63476224  0.94383483  0.60060784     0.03600
C108        C  0.61592786  0.92941376  0.61300065    -0.12600
C109        C  0.59729986  0.94156296  0.62787428     0.01100
C110        C  0.59731109  0.96829004  0.62986450    -0.11100
C111        C  0.61645376  0.98319285  0.61796237     0.03600
C112        C  0.63552883  0.97033920  0.60395097    -0.10500
H113        H  0.61525824  0.90888787  0.61043505     0.09100
H114        H  0.58193785  0.97708780  0.64048005     0.06700
H115        H  0.65103275  0.98061523  0.59499286     0.06500
C116        C  0.59708301  0.05124620  0.63602292     0.03600
C117        C  0.61019063  0.06553168  0.61753362    -0.12600
C118        C  0.62620821  0.05340011  0.59998012     0.01100
C119        C  0.62822217  0.02675209  0.60006910    -0.11100
C120        C  0.61564243  0.01188110  0.61879039     0.03600
C121        C  0.60119798  0.02480467  0.63752511    -0.10500
H122        H  0.60777351  0.08607022  0.61658480     0.09100
H123        H  0.63922097  0.01807544  0.58492658     0.06700
H124        H  0.59259864  0.01454211  0.65323988     0.06500
C125        C  0.26953657  0.95383160  0.63231259     0.03600
C126        C  0.26909419  0.98045718  0.63440614    -0.12600
C127        C  0.25111355  0.99532895  0.62084734     0.01100
C128        C  0.23353123  0.98250106  0.60485015    -0.11100
C129        C  0.23454768  0.95584737  0.60197220     0.03600
C130        C  0.25209532  0.94158047  0.61625410    -0.10500
H131        H  0.28354999  0.98926217  0.64620466     0.09100
H132        H  0.21921638  0.99289916  0.59416660     0.06700
H133        H  0.25291740  0.92101118  0.61402632     0.06500
C134        C  0.24594653  0.06583818  0.60246105     0.03600
C135        C  0.26027565  0.07728941  0.62186422    -0.12600
C136        C  0.27028588  0.06245693  0.64179746     0.01100
C137        C  0.26447681  0.03632339  0.64274164    -0.11100
C138        C  0.25227179  0.02396603  0.62210058     0.03600
C139        C  0.24286784  0.03927199  0.60200161    -0.10500
H140        H  0.26375795  0.09768133  0.62124928     0.09100
H141        H  0.27035405  0.02571370  0.65945674     0.06700
H142        H  0.23326986  0.03093710  0.58573129     0.06500
O143        O  0.46321434  0.14320392  0.76474090    -0.71300
O144        O  0.41517538  0.18389265  0.80072723    -0.71600
O145        O  0.41193560  0.14562906  0.76659440    -0.71400
O146        O  0.46640112  0.18167266  0.79875839    -0.71400
O147        O  0.46586569  0.20927855  0.76793847    -0.71400
O148        O  0.41273162  0.17297648  0.73546257    -0.71400
O149        O  0.41484156  0.21101928  0.76935003    -0.71400
O150        O  0.46376735  0.17101372  0.73408249    -0.71500
V151        V  0.43920125  0.16409660  0.78214167     1.35200
V152        V  0.43931873  0.19051866  0.75233535     1.35200
C153        C  0.47171775  0.15010780  0.74322844     0.77900
C154        C  0.40662984  0.20429139  0.79102078     0.77900
C155        C  0.40333119  0.15306688  0.74523010     0.77800
C156        C  0.47518341  0.20194361  0.78896583     0.77800
O157        O  0.08426101  0.18905343  0.41547493    -0.71300
O158        O  0.12611842  0.15533352  0.46430450    -0.71600
O159        O  0.08840487  0.19009470  0.46659719    -0.71400
O160        O  0.12209392  0.15413264  0.41340630    -0.71400
O161        O  0.15026737  0.18438196  0.41057349    -0.71400
O162        O  0.11619185  0.22061020  0.46358834    -0.71400
O163        O  0.15397484  0.18590466  0.46158618    -0.71400
O164        O  0.11236601  0.21929748  0.41241176    -0.71500
V165        V  0.10573563  0.17276353  0.43985682     1.35200
V166        V  0.13263759  0.20198764  0.43705679     1.35200
C167        C  0.09109707  0.20999327  0.40558747     0.77900
C168        C  0.14720105  0.16489104  0.47131907     0.77900
C169        C  0.09649276  0.21153163  0.47426851     0.77800
C170        C  0.14235271  0.16270041  0.40340656     0.77800
C171        C  0.64237546  0.34214374  0.87766679     0.03600
C172        C  0.62468529  0.32874419  0.86271651    -0.12600
C173        C  0.60508197  0.31473641  0.87437864     0.01100
C174        C  0.60265536  0.31515081  0.90101474    -0.11100
C175        C  0.62046140  0.32801305  0.91651485     0.03600
C176        C  0.64055255  0.34139273  0.90440077    -0.10500
H177        H  0.62597783  0.32953421  0.84205913     0.09100
H178        H  0.58652056  0.30534638  0.90939948     0.06700
H179        H  0.65496285  0.35129182  0.91541068     0.06500
C180        C  0.59974722  0.30836708  0.98385671     0.03600
C181        C  0.61043933  0.32799305  0.99844984    -0.12600
C182        C  0.62486009  0.34715145  0.98675453     0.01100
C183        C  0.62783558  0.34739898  0.96017255    -0.11100
C184        C  0.61754519  0.32770302  0.94501237     0.03600
C185        C  0.60392832  0.30790617  0.95739591    -0.10500
H186        H  0.60738269  0.32854636  0.01893232     0.09100
H187        H  0.63825444  0.36307913  0.95167009     0.06700
H188        H  0.59643772  0.29185898  0.94680167     0.06500
O189        O  0.78592792  0.47533408  0.11832660    -0.71300
O190        O  0.75077601  0.52934183  0.08416865    -0.71600
O191        O  0.78831990  0.52655197  0.11966473    -0.71400
O192        O  0.74867409  0.47824206  0.08289411    -0.71400
O193        O  0.72037077  0.47840242  0.11319436    -0.71400
O194        O  0.75947324  0.52738120  0.14947615    -0.71400
O195        O  0.72215087  0.52939491  0.11404993    -0.71400
O196        O  0.75761811  0.47614561  0.14850380    -0.71500
V197        V  0.76790809  0.50241027  0.10184495     1.35200
V198        V  0.74048692  0.50285008  0.13073262     1.35200
C199        C  0.77785381  0.46648964  0.13934532     0.77900
C200        C  0.72998937  0.53819849  0.09297132     0.77900
C201        C  0.78081325  0.53498307  0.14101394     0.77800
C202        C  0.72771637  0.47007268  0.09177937     0.77800
C203        C  0.63381695  0.66658895  0.87775286     0.03600
C204        C  0.61493732  0.67936346  0.86366183    -0.12600
C205        C  0.59556618  0.69306019  0.87619951     0.01100
C206        C  0.59463573  0.69284141  0.90302723    -0.11100
C207        C  0.61379082  0.68064294  0.91776407     0.03600
C208        C  0.63366168  0.66798087  0.90450826    -0.10500
H209        H  0.61494517  0.67808883  0.84299078     0.09100
H210        H  0.57854905  0.70212461  0.91202767     0.06700
H211        H  0.64903704  0.65857597  0.91457551     0.06500
C212        C  0.59246180  0.69538331  0.98638827     0.03600
C213        C  0.60667380  0.67737674  0.00025536    -0.12600
C214        C  0.62414735  0.66131995  0.98791479     0.01100
C215        C  0.62592689  0.66188712  0.96115779    -0.11100
C216        C  0.61229664  0.68018078  0.94659346     0.03600
C217        C  0.59663070  0.69768844  0.95996832    -0.10500
H218        H  0.60415982  0.67575171  0.02075225     0.09100
H219        H  0.63813071  0.64790329  0.95216937     0.06700
H220        H  0.58737886  0.71328761  0.95014302     0.06500
C221        C  0.26679536  0.69675855  0.87887655     0.03600
C222        C  0.25337741  0.67843339  0.86485985    -0.12600
C223        C  0.23913272  0.65972309  0.87751100     0.01100
C224        C  0.23839577  0.65930245  0.90428081    -0.11100
C225        C  0.25103856  0.67808636  0.91894163     0.03600
C226        C  0.26457363  0.69729107  0.90556807    -0.10500
H227        H  0.25470045  0.67819533  0.84418584     0.09100
H228        H  0.22809720  0.64379266  0.91317090     0.06700
H229        H  0.27394706  0.71275806  0.91539539     0.06500
C230        C  0.23506004  0.65908664  0.98811294     0.03600
C231        C  0.23383250  0.66120440  0.96139755    -0.12600
C232        C  0.25106153  0.67702648  0.94775740     0.01100
C233        C  0.26892537  0.69129181  0.96214134    -0.11100
C234        C  0.26920473  0.69015708  0.98881906     0.03600
C235        C  0.25277859  0.67367036  0.00172156    -0.10500
H236        H  0.21914888  0.65036195  0.95176953     0.09100
H237        H  0.28313572  0.70321439  0.95317504     0.06700
H238        H  0.25387533  0.67213736  0.02235568     0.06500
O239        O  0.40241905  0.81709437  0.07940067    -0.71300
O240        O  0.45397451  0.85255074  0.11599143    -0.71600
O241        O  0.45371368  0.81698326  0.07915185    -0.71400
O242        O  0.40234991  0.85254401  0.11617593    -0.71400
O243        O  0.40283303  0.82317279  0.14531485    -0.71400
O244        O  0.45324906  0.78690725  0.10767542    -0.71400
O245        O  0.45443573  0.82250991  0.14449191    -0.71400
O246        O  0.40198847  0.78771896  0.10870394    -0.71500
V247        V  0.42812905  0.83427067  0.09827937     1.35200
V248        V  0.42816723  0.80568589  0.12602332     1.35200
C249        C  0.39324084  0.79648696  0.08799238     0.77900
C250        C  0.46344768  0.84331355  0.13623087     0.77900
C251        C  0.46188708  0.79558160  0.08684202     0.77800
C252        C  0.39345098  0.84376396  0.13689562     0.77800
C253        C  0.27184960  0.30366350  0.88372347     0.03600
C254        C  0.26992370  0.30193224  0.91028766    -0.12600
C255        C  0.24907257  0.31269859  0.92342616     0.01100
C256        C  0.23045089  0.32592530  0.90903863    -0.11100
C257        C  0.23329102  0.32934811  0.88259527     0.03600
C258        C  0.25400120  0.31801323  0.86995119    -0.10500
H259        H  0.28519638  0.29233851  0.92037543     0.09100
H260        H  0.21373426  0.33403916  0.91808113     0.06700
H261        H  0.25630606  0.32043577  0.84950827     0.06500
C262        C  0.23502984  0.33061063  0.99251127     0.03600
C263        C  0.25023578  0.31314947  0.00583499    -0.12600
C264        C  0.26446488  0.29486404  0.99248313     0.01100
C265        C  0.26177104  0.29304461  0.96586407    -0.11100
C266        C  0.24786226  0.31154988  0.95198973     0.03600
C267        C  0.23441135  0.33022768  0.96582900    -0.10500
H268        H  0.25170622  0.31446360  0.02645615     0.09100
H269        H  0.27148820  0.27760179  0.95619374     0.06700
H270        H  0.22375660  0.34508753  0.95623714     0.06500
C271        C  0.87587482  0.33145262  0.62803721     0.03600
C272        C  0.86379413  0.31380747  0.61200802    -0.12600
C273        C  0.87809013  0.29450678  0.60000710     0.01100
C274        C  0.90449026  0.29258414  0.60479669    -0.11100
C275        C  0.91720606  0.31055672  0.62030502     0.03600
C276        C  0.90240069  0.33012153  0.63159247    -0.10500
H277        H  0.84350411  0.31569057  0.60817340     0.09100
H278        H  0.91487447  0.27703918  0.59602710     0.06700
H279        H  0.91122426  0.34510960  0.64269886     0.06500
C280        C  0.98883481  0.30036406  0.60727479     0.03600
C281        C  0.99953428  0.31459143  0.62721413    -0.12600
C282        C  0.98386319  0.32606337  0.64558978     0.01100
C283        C  0.95732266  0.32281810  0.64428735    -0.11100
C284        C  0.94580495  0.30999967  0.62361228     0.03600
C285        C  0.96204004  0.29831805  0.60540306    -0.10500
H286        H  0.02004977  0.31757989  0.62781236     0.09100
H287        H  0.94587382  0.33117611  0.65931383     0.06700
H288        H  0.95420763  0.28814433  0.58926012     0.06500
O289        O  0.09918268  0.46923652  0.73157914    -0.71300
O290        O  0.13938583  0.51911608  0.76545388    -0.71600
O291        O  0.13724169  0.46789726  0.76588409    -0.71400
O292        O  0.10143757  0.52034789  0.73102516    -0.71400
O293        O  0.07393054  0.52234115  0.76189815    -0.71400
O294        O  0.10896662  0.46879504  0.79626213    -0.71400
O295        O  0.11185518  0.52002554  0.79639344    -0.71400
O296        O  0.07105690  0.47119148  0.76202491    -0.71500
V297        V  0.11878303  0.49417296  0.74907983     1.35200
V298        V  0.09200402  0.49558147  0.77857011     1.35200
C299        C  0.07816713  0.46183422  0.74094983     0.77900
C300        C  0.13241251  0.52821552  0.78673432     0.77900
C301        C  0.12901638  0.45911445  0.78682934     0.77800
C302        C  0.08157595  0.53043027  0.74045610     0.77800
C303        C  0.88428409  0.66875690  0.62474660     0.03600
C304        C  0.87293694  0.68779222  0.60985634    -0.12600
C305        C  0.88800360  0.70619169  0.59760193     0.01100
C306        C  0.91459727  0.70610136  0.60139874    -0.11100
C307        C  0.92667756  0.68623832  0.61514954     0.03600
C308        C  0.91097545  0.66774648  0.62691640    -0.10500
H309        H  0.85233290  0.68794170  0.60742641     0.09100
H310        H  0.92558010  0.72154748  0.59322472     0.06700
H311        H  0.91909519  0.65216813  0.63771745     0.06500
C312        C  0.99747531  0.69321777  0.59786874     0.03600
C313        C  0.00905428  0.67774715  0.61630332    -0.12600
C314        C  0.99417932  0.66540643  0.63475725     0.01100
C315        C  0.96761663  0.66917396  0.63510496    -0.11100
C316        C  0.95534560  0.68408848  0.61621607     0.03600
C317        C  0.97080664  0.69593725  0.59754634    -0.10500
H318        H  0.02960086  0.67489715  0.61592627     0.09100
H319        H  0.95690140  0.66017867  0.65028664     0.06700
H320        H  0.96249040  0.70718153  0.58236197     0.06500
O321        O  0.11820120  0.79019888  0.41113695    -0.71300
O322        O  0.15259967  0.82881535  0.46219204    -0.71600
O323        O  0.11846654  0.79041926  0.46253875    -0.71400
O324        O  0.15232296  0.82859241  0.41089729    -0.71400
O325        O  0.12117287  0.85600444  0.41105259    -0.71400
O326        O  0.08750308  0.81795519  0.46242100    -0.71400
O327        O  0.12150695  0.85623460  0.46209535    -0.71400
O328        O  0.08720890  0.81771826  0.41125350    -0.71500
V329        V  0.13480965  0.80999877  0.43668203     1.35200
V330        V  0.10495490  0.83641161  0.43670183     1.35200
C331        C  0.09683149  0.79741216  0.40238762     0.77900
C332        C  0.14293650  0.84919426  0.47084318     0.77900
C333        C  0.09720001  0.79780587  0.47143753     0.77800
C334        C  0.14263734  0.84907057  0.40247253     0.77800
C335        C  0.88426467  0.69687221  0.27366097     0.03600
C336        C  0.91102793  0.69701147  0.27257659    -0.12600
C337        C  0.92467060  0.67760850  0.25975995     0.01100
C338        C  0.91018904  0.65909685  0.24626395    -0.11100
C339        C  0.88335532  0.66046259  0.24517106     0.03600
C340        C  0.87049435  0.67901352  0.25942305    -0.10500
H341        H  0.92072242  0.71234191  0.28235035     0.09100
H342        H  0.91920645  0.64341245  0.23644132     0.06700
H343        H  0.84975081  0.67918384  0.25985930     0.06500
C344        C  0.99425113  0.65859246  0.24618045     0.03600
C345        C  0.96759614  0.66069113  0.24423762    -0.12600
C346        C  0.95354617  0.67654071  0.26095755     0.01100
C347        C  0.96759483  0.69100210  0.27908732    -0.11100
C348        C  0.99444664  0.69022220  0.27976139     0.03600
C349        C  0.00763375  0.67393581  0.26333296    -0.10500
H350        H  0.95835183  0.64962848  0.22954251     0.09100
H351        H  0.95822555  0.70295655  0.29301884     0.06700
H352        H  0.02832426  0.67269177  0.26439890     0.06500
C353        C  0.87683859  0.29568400  0.26876844     0.03600
C354        C  0.90358930  0.29629556  0.26707290    -0.12600
C355        C  0.91642189  0.31648837  0.25482569     0.01100
C356        C  0.90152695  0.33526130  0.24236861    -0.11100
C357        C  0.87462770  0.33441197  0.24284546     0.03600
C358        C  0.86243611  0.31479807  0.25656293    -0.10500
H359        H  0.91421574  0.28083596  0.27563865     0.09100
H360        H  0.91064273  0.35096146  0.23229412     0.06700
H361        H  0.84177562  0.31477694  0.25814392     0.06500
C362        C  0.98551704  0.33355555  0.23811602     0.03600
C363        C  0.95885258  0.33146257  0.23683841    -0.12600
C364        C  0.94510853  0.31798878  0.25565232     0.01100
C365        C  0.95913162  0.30624201  0.27562832    -0.11100
C366        C  0.98597777  0.30723321  0.27620118     0.03600
C367        C  0.99905320  0.32093711  0.25736705    -0.10500
H368        H  0.94907748  0.34064377  0.22092545     0.09100
H369        H  0.94952587  0.29631667  0.29091029     0.06700
H370        H  0.01973953  0.32235594  0.25807750     0.06500
O371        O  0.10617167  0.46894271  0.14381204    -0.71300
O372        O  0.14136574  0.52093366  0.10731292    -0.71600
O373        O  0.10682381  0.52017892  0.14533347    -0.71400
O374        O  0.14070749  0.46990048  0.10633122    -0.71400
O375        O  0.11026922  0.47080140  0.07826975    -0.71400
O376        O  0.07615200  0.52138062  0.11742064    -0.71400
O377        O  0.11068471  0.52188500  0.07951175    -0.71400
O378        O  0.07570534  0.47012309  0.11578459    -0.71500
V379        V  0.12316180  0.49506547  0.12519040     1.35200
V380        V  0.09376070  0.49608256  0.09831452     1.35200
C381        C  0.08513973  0.46023136  0.13569559     0.77900
C382        C  0.13222035  0.52994038  0.08679061     0.77900
C383        C  0.08575720  0.52947214  0.13804701     0.77800
C384        C  0.13129367  0.46154857  0.08575032     0.77800
C385        C  0.99921608  0.35047097  0.22039852    -0.11500
C386        C  0.99750976  0.37715124  0.22310128     0.03900
C387        C  0.01166828  0.39296372  0.20702047    -0.12100
C388        C  0.02757967  0.38255209  0.18819842     0.18800
C389        C  0.02908038  0.35590778  0.18518670    -0.09100
C390        C  0.01496193  0.33999199  0.20139227    -0.02100
H391        H  0.01064568  0.41349033  0.20948198     0.05300
C392        C  0.04319821  0.40012368  0.17286982     0.20800
H393        H  0.01633313  0.31945031  0.19927710     0.10500
C394        C  0.06821500  0.40542822  0.18074708    -0.15500
C395        C  0.08253554  0.42463570  0.16891538     0.03500
C396        C  0.07157083  0.43903460  0.14874071    -0.10800
C397        C  0.04666834  0.43286662  0.14046386    -0.00800
C398        C  0.03251519  0.41368600  0.15238283    -0.06000
H399        H  0.07639389  0.39496492  0.19664893     0.06500
H400        H  0.03784679  0.44328784  0.12489989     0.09900
Br401      Br  0.05001981  0.34068777  0.15924795    -0.05700
Br402      Br  0.97722336  0.39282271  0.24935617    -0.02600
Br403      Br  0.11664656  0.42973285  0.18163583     0.00200
Br404      Br  0.99845911  0.40693081  0.14047614    -0.04100
C405        C  0.07275060  0.54893478  0.15373546    -0.11500
C406        C  0.05615792  0.56739613  0.14309006     0.03900
C407        C  0.04430313  0.58523302  0.15899164    -0.12100
C408        C  0.04893328  0.58531768  0.18535460     0.18800
C409        C  0.06564606  0.56716512  0.19600205    -0.09100
C410        C  0.07739697  0.54919809  0.18020246    -0.02100
H411        H  0.03149962  0.59928001  0.15073603     0.05300
C412        C  0.03571241  0.60425145  0.20138859     0.20800
H413        H  0.09015492  0.53527473  0.18872025     0.10500
C414        C  0.01709066  0.59588234  0.21874326    -0.15500
C415        C  0.00352427  0.61336441  0.23360002     0.03500
C416        C  0.00820225  0.63970874  0.23074090    -0.10800
C417        C  0.02710883  0.64806019  0.21366848    -0.00800
C418        C  0.04091053  0.63052536  0.19904906    -0.06000
H419        H  0.01319205  0.57566190  0.22078347     0.06500
H420        H  0.03113329  0.66826621  0.21175128     0.09900
Br421      Br  0.07361901  0.56664725  0.23181133    -0.05700
Br422      Br  0.05001429  0.57052265  0.10703872    -0.02600
Br423      Br  0.97995999  0.60023874  0.25852525     0.00200
Br424      Br  0.06724641  0.64320900  0.17686341    -0.04100
C425        C  0.08282187  0.78240641  0.38281254    -0.11500
C426        C  0.09488079  0.76418308  0.36684577     0.03900
C427        C  0.08023771  0.74991589  0.34957415    -0.12100
C428        C  0.05375578  0.75364325  0.34756924     0.18800
C429        C  0.04184723  0.77226822  0.36277854    -0.09100
C430        C  0.05631320  0.78639313  0.38018718    -0.02100
H431        H  0.08953996  0.73579035  0.33763362     0.05300
C432        C  0.03867798  0.73755555  0.32997585     0.20800
H433        H  0.04662006  0.80039879  0.39194520     0.10500
C434        C  0.02253194  0.71870991  0.34015287    -0.15500
C435        C  0.00783620  0.70319115  0.32411675     0.03500
C436        C  0.00908850  0.70658208  0.29745719    -0.10800
C437        C  0.02543722  0.72527166  0.28728294    -0.00800
C438        C  0.04019645  0.74071789  0.30331472    -0.06000
H439        H  0.02155555  0.71594558  0.36065177     0.06500
H440        H  0.02665705  0.72786910  0.26677374     0.09900
Br441      Br  0.00592556  0.77940307  0.36002347    -0.05700
Br442      Br  0.13119122  0.75845245  0.36656354    -0.02600
Br443      Br  0.98755187  0.67672068  0.33936201     0.00200
Br444      Br  0.06170700  0.76618565  0.28803996    -0.04100
C445        C  0.01341119  0.70740893  0.57947780    -0.11500
C446        C  0.01144004  0.70344392  0.55292137     0.03900
C447        C  0.02630544  0.71806459  0.53621987    -0.12100
C448        C  0.04314647  0.73665695  0.54563118     0.18800
C449        C  0.04522251  0.74050890  0.57214909    -0.09100
C450        C  0.03050858  0.72579446  0.58885385    -0.02100
H451        H  0.02464830  0.71504405  0.51580433     0.05300
C452        C  0.05779031  0.75236258  0.52742893     0.20800
H453        H  0.03210068  0.72897379  0.60925372     0.10500
C454        C  0.05103701  0.77800865  0.52413721    -0.15500
C455        C  0.06389533  0.79339823  0.50651820     0.03500
C456        C  0.08381901  0.78290063  0.49144522    -0.10800
C457        C  0.09082347  0.75723358  0.49527906    -0.00800
C458        C  0.07799408  0.74200334  0.51307378    -0.06000
H459        H  0.03561624  0.78608523  0.53538520     0.06500
H460        H  0.10613300  0.74879929  0.48416513     0.09900
Br461      Br  0.06801741  0.76544836  0.58637108    -0.05700
Br462      Br  0.98944765  0.67783299  0.53861144    -0.02600
Br463      Br  0.05362871  0.82862988  0.50511982     0.00200
Br464      Br  0.08895263  0.70730716  0.51750939    -0.04100
C465        C  0.00606306  0.64665137  0.65220323    -0.11500
C466        C  0.02591597  0.65340873  0.66913103     0.03900
C467        C  0.03773244  0.63455324  0.68398348    -0.12100
C468        C  0.02996756  0.60899390  0.68221921     0.18800
C469        C  0.00977999  0.60232841  0.66578507    -0.09100
C470        C  0.99797071  0.62111926  0.65095616    -0.02100
H471        H  0.05310669  0.63978585  0.69684089     0.05300
C472        C  0.04339522  0.58937824  0.69729896     0.20800
H473        H  0.98276926  0.61569920  0.63796466     0.10500
C474        C  0.03445113  0.58318110  0.72172245    -0.15500
C475        C  0.04637619  0.56416729  0.73630844     0.03500
C476        C  0.06789799  0.55098029  0.72632608    -0.10800
C477        C  0.07672758  0.55754501  0.70173311    -0.00800
C478        C  0.06467713  0.57647035  0.68728994    -0.06000
H479        H  0.01796226  0.59311693  0.72939933     0.06500
H480        H  0.09304798  0.54782621  0.69347651     0.09900
Br481      Br  0.99817025  0.56772050  0.66266150    -0.05700
Br482      Br  0.03686001  0.68812977  0.67329476    -0.02600
Br483      Br  0.03190653  0.55769295  0.76943985     0.00200
Br484      Br  0.07768990  0.58389501  0.65380595    -0.04100
C485        C  0.99472157  0.34477616  0.66368541    -0.11500
C486        C  0.01527284  0.33876259  0.68005362     0.03900
C487        C  0.02685930  0.35809428  0.69437989    -0.12100
C488        C  0.01806878  0.38334740  0.69276687     0.18800
C489        C  0.99671110  0.38910463  0.67750671    -0.09100
C490        C  0.98523220  0.36987906  0.66310501    -0.02100
H491        H  0.04316068  0.35355910  0.70634692     0.05300
C492        C  0.03270084  0.40375414  0.70535631     0.20800
H493        H  0.96935764  0.37474715  0.65069872     0.10500
C494        C  0.04767370  0.41998709  0.69021904    -0.15500
C495        C  0.06246916  0.43921447  0.70128062     0.03500
C496        C  0.06244206  0.44231181  0.72809458    -0.10800
C497        C  0.04704166  0.42620985  0.74314906    -0.00800
C498        C  0.03231933  0.40696222  0.73198677    -0.06000
H499        H  0.04782660  0.41763968  0.66964357     0.06500
H500        H  0.04671667  0.42834019  0.76374004     0.09900
Br501      Br  0.98286862  0.42300043  0.67547608    -0.05700
Br502      Br  0.02785430  0.30454705  0.68384695    -0.02600
Br503      Br  0.08109569  0.46118750  0.67849876     0.00200
Br504      Br  0.01170308  0.38578343  0.75368664    -0.04100
C505        C  0.14497048  0.44149710  0.07126533    -0.11500
C506        C  0.13501148  0.42988512  0.04891478     0.03900
C507        C  0.14933490  0.41118602  0.03631008    -0.12100
C508        C  0.17331798  0.40376628  0.04557915     0.18800
C509        C  0.18313572  0.41493640  0.06782662    -0.09100
C510        C  0.16903351  0.43358412  0.08044363    -0.02100
H511        H  0.14182667  0.40246027  0.01910216     0.05300
C512        C  0.18839615  0.38487368  0.03148757     0.20800
H513        H  0.17712625  0.44194503  0.09755329     0.10500
C514        C  0.20887853  0.39336011  0.01647049    -0.15500
C515        C  0.22456067  0.37590818  0.00386732     0.03500
C516        C  0.21973357  0.34957120  0.00636415    -0.10800
C517        C  0.19920953  0.34111187  0.02139598    -0.00800
C518        C  0.18343409  0.35861348  0.03386780    -0.06000
H519        H  0.21281993  0.41361219  0.01483900     0.06500
H520        H  0.19531100  0.32086502  0.02317209     0.09900
Br521      Br  0.21565021  0.40507515  0.08179885    -0.05700
Br522      Br  0.10227521  0.43807515  0.03431827    -0.02600
Br523      Br  0.25280808  0.38890871  0.98434924     0.00200
Br524      Br  0.15568531  0.34593971  0.05424202    -0.04100
C525        C  0.14298805  0.43847878  0.80008882    -0.11500
C526        C  0.13036388  0.41973733  0.81488190     0.03900
C527        C  0.14468371  0.40134374  0.82802259    -0.12100
C528        C  0.17144934  0.40118034  0.82653047     0.18800
C529        C  0.18398435  0.41910476  0.81090571    -0.09100
C530        C  0.16976233  0.43756615  0.79788680    -0.02100
H531        H  0.13493112  0.38719797  0.83958143     0.05300
C532        C  0.18609922  0.38248018  0.84169305     0.20800
H533        H  0.17974685  0.45153946  0.78631668     0.10500
C534        C  0.18691352  0.35687334  0.83390643    -0.15500
C535        C  0.20173453  0.33903544  0.84727334     0.03500
C536        C  0.21597379  0.34686379  0.86876143    -0.10800
C537        C  0.21437696  0.37232322  0.87698765    -0.00800
C538        C  0.19955479  0.39007901  0.86369124    -0.06000
H539        H  0.17621155  0.35084058  0.81724160     0.06500
H540        H  0.22509415  0.37852172  0.89358887     0.09900
Br541      Br  0.22047121  0.41893113  0.80665968    -0.05700
Br542      Br  0.09374018  0.41725276  0.81667779    -0.02600
Br543      Br  0.20115303  0.30415775  0.83608432     0.00200
Br544      Br  0.19817380  0.42447197  0.87628810    -0.04100
C545        C  0.21879177  0.64052513  0.00178825    -0.11500
C546        C  0.20212692  0.64814491  0.02155390     0.03900
C547        C  0.18826681  0.62976232  0.03507601    -0.12100
C548        C  0.19082322  0.60377393  0.02926803     0.18800
C549        C  0.20719473  0.59613139  0.00934749    -0.09100
C550        C  0.22097743  0.61450271  0.99571471    -0.02100
H551        H  0.17542769  0.63572916  0.05019841     0.05300
C552        C  0.17598886  0.58496388  0.04404206     0.20800
H553        H  0.23391831  0.60842682  0.98072313     0.10500
C554        C  0.15469203  0.57342402  0.03273801    -0.15500
C555        C  0.13998957  0.55561424  0.04615697     0.03500
C556        C  0.14658995  0.54915263  0.07166656    -0.10800
C557        C  0.16806234  0.56091784  0.08283113    -0.00800
C558        C  0.18267687  0.57867142  0.06926274    -0.06000
H559        H  0.14956068  0.57826093  0.01325959     0.06500
H560        H  0.17363339  0.55628667  0.10222484     0.09900
Br561      Br  0.21206909  0.56081303  0.00088029    -0.05700
Br562      Br  0.19692873  0.68337217  0.03023339    -0.02600
Br563      Br  0.11197565  0.54061651  0.02767100     0.00200
Br564      Br  0.21204669  0.59334104  0.08562938    -0.04100
C565        C  0.28672297  0.70650635  0.00331383    -0.11500
C566        C  0.27916941  0.73106617  0.01115873     0.03900
C567        C  0.29618819  0.74631027  0.02492733    -0.12100
C568        C  0.32073716  0.73732702  0.03080086     0.18800
C569        C  0.32827993  0.71275381  0.02296413    -0.09100
C570        C  0.31122691  0.69747974  0.00927056    -0.02100
H571        H  0.29035304  0.76522649  0.03095810     0.05300
C572        C  0.33828603  0.75376893  0.04521685     0.20800
H573        H  0.31705543  0.67856198  0.00323768     0.10500
C574        C  0.33671384  0.75419104  0.07190991    -0.15500
C575        C  0.35402113  0.76855174  0.08627856     0.03500
C576        C  0.37334895  0.78264398  0.07375263    -0.10800
C577        C  0.37416186  0.78294213  0.04693343    -0.00800
C578        C  0.35681038  0.76859620  0.03264471    -0.06000
H579        H  0.32208703  0.74314464  0.08157093     0.06500
H580        H  0.38875191  0.79383598  0.03705124     0.09900
Br581      Br  0.36158772  0.69939893  0.03068390    -0.05700
Br582      Br  0.24589605  0.74444617  0.00332868    -0.02600
Br583      Br  0.34943175  0.76914422  0.12270064     0.00200
Br584      Br  0.35922835  0.76944678  0.99606986    -0.04100
C585        C  0.14812528  0.54778590  0.79987522    -0.11500
C586        C  0.13854449  0.56293265  0.82017299     0.03900
C587        C  0.15440183  0.58094003  0.83186676    -0.12100
C588        C  0.17956416  0.58469752  0.82349876     0.18800
C589        C  0.18911725  0.56994493  0.80320748    -0.09100
C590        C  0.17348169  0.55165645  0.79165264    -0.02100
H591        H  0.14695724  0.59237680  0.84744097     0.05300
C592        C  0.19545372  0.60415702  0.83625456     0.20800
H593        H  0.18125907  0.54046662  0.77607740     0.10500
C594        C  0.21620247  0.59633064  0.85134340    -0.15500
C595        C  0.23097121  0.61422509  0.86454207     0.03500
C596        C  0.22493512  0.64038673  0.86277283    -0.10800
C597        C  0.20446457  0.64824295  0.84732619    -0.00800
C598        C  0.18966331  0.63034213  0.83417647    -0.06000
H599        H  0.22078533  0.57621375  0.85298087     0.06500
H600        H  0.19973729  0.66834047  0.84584660     0.09900
Br601      Br  0.22302064  0.57481485  0.78998127    -0.05700
Br602      Br  0.10384803  0.56143400  0.83229606    -0.02600
Br603      Br  0.25957452  0.60213018  0.88412517     0.00200
Br604      Br  0.16195261  0.64251363  0.81339677    -0.04100
C605        C  0.57349745  0.71189318  0.99975588    -0.11500
C606        C  0.54814035  0.71503205  0.99068847     0.03900
C607        C  0.53069965  0.72984857  0.00456009    -0.12100
C608        C  0.53779863  0.74130433  0.02765996     0.18800
C609        C  0.56280589  0.73797096  0.03695011    -0.09100
C610        C  0.58047987  0.72365048  0.02290241    -0.02100
H611        H  0.51126595  0.73191675  0.99763864     0.05300
C612        C  0.51841697  0.75541865  0.04254514     0.20800
H613        H  0.59970071  0.72138720  0.03031817     0.10500
C614        C  0.50095749  0.74168039  0.05747520    -0.15500
C615        C  0.48240778  0.75427665  0.07205508     0.03500
C616        C  0.48113735  0.78126303  0.07179289    -0.10800
C617        C  0.49847189  0.79491616  0.05640982    -0.00800
C618        C  0.51704532  0.78221848  0.04192968    -0.06000
H619        H  0.50175439  0.72100287  0.05772143     0.06500
H620        H  0.49775284  0.81558287  0.05581070     0.09900
Br621      Br  0.57318267  0.75161368  0.06934090    -0.05700
Br622      Br  0.53520015  0.69781518  0.96094996    -0.02600
Br623      Br  0.45859814  0.73329056  0.09053790     0.00200
Br624      Br  0.54002833  0.80211169  0.02141596    -0.04100
C625        C  0.86857297  0.64202721  0.22965584    -0.11500
C626        C  0.85295250  0.65024658  0.20926654     0.03900
C627        C  0.83880504  0.63243528  0.19527244    -0.12100
C628        C  0.83972463  0.60636855  0.20136093     0.18800
C629        C  0.85545196  0.59810667  0.22163956    -0.09100
C630        C  0.86980161  0.61590596  0.23552029    -0.02100
H631        H  0.82707537  0.63892593  0.17947561     0.05300
C632        C  0.82450022  0.58813618  0.18600441     0.20800
H633        H  0.88162729  0.60940538  0.25123961     0.10500
C634        C  0.83716111  0.57020709  0.17062927    -0.15500
C635        C  0.82341275  0.55277524  0.15572880     0.03500
C636        C  0.79636915  0.55329601  0.15588646    -0.10800
C637        C  0.78377339  0.57129314  0.17131372    -0.00800
C638        C  0.79755764  0.58866464  0.18619609    -0.06000
H639        H  0.85788804  0.56965632  0.17039492     0.06500
H640        H  0.76305329  0.57190941  0.17177465     0.09900
Br641      Br  0.85714841  0.56291863  0.23175029    -0.05700
Br642      Br  0.85107090  0.68541771  0.19907151    -0.02600
Br643      Br  0.84276956  0.52774071  0.13712435     0.00200
Br644      Br  0.77868030  0.61215177  0.20710073    -0.04100
C645        C  0.79151082  0.44558358  0.15331463    -0.11500
C646        C  0.81505461  0.43489638  0.14496530     0.03900
C647        C  0.82725945  0.41607460  0.15969375    -0.12100
C648        C  0.81657182  0.40736195  0.18264727     0.18800
C649        C  0.79303769  0.41745292  0.19078215    -0.09100
C650        C  0.78076308  0.43628323  0.17623410    -0.02100
H651        H  0.84540023  0.40832754  0.15332176     0.05300
C652        C  0.83078367  0.38852159  0.19836471     0.20800
H653        H  0.76275000  0.44382952  0.18314267     0.10500
C654        C  0.84857375  0.39728077  0.21638772    -0.15500
C655        C  0.86265905  0.38011644  0.23140203     0.03500
C656        C  0.85920810  0.35351116  0.22834742    -0.10800
C657        C  0.84101402  0.34484763  0.21052887    -0.00800
C658        C  0.82690583  0.36207985  0.19560248    -0.06000
H659        H  0.85140759  0.41763114  0.21887441     0.06500
H660        H  0.83806892  0.32452558  0.20789484     0.09900
Br661      Br  0.77717860  0.40627990  0.22189600    -0.05700
Br662      Br  0.83221695  0.44494363  0.11408739    -0.02600
Br663      Br  0.88521468  0.39422739  0.25666791     0.00200
Br664      Br  0.80269329  0.34877270  0.17152083    -0.04100
C665        C  0.64053120  0.64382475  0.00308510    -0.11500
C666        C  0.65801757  0.65328485  0.02134306     0.03900
C667        C  0.67298785  0.63631984  0.03565977    -0.12100
C668        C  0.67098366  0.60989169  0.03200709     0.18800
C669        C  0.65379478  0.60041327  0.01359247    -0.09100
C670        C  0.63880797  0.61735052  0.99922812    -0.02100
H671        H  0.68631393  0.64375980  0.04965357     0.05300
C672        C  0.68660469  0.59245514  0.04791453     0.20800
H673        H  0.62554755  0.60983326  0.98521553     0.10500
C674        C  0.67647909  0.58322467  0.07087062    -0.15500
C675        C  0.69028260  0.56613005  0.08619649     0.03500
C676        C  0.71498625  0.55776437  0.07848633    -0.10800
C677        C  0.72516503  0.56762329  0.05554724    -0.00800
C678        C  0.71126038  0.58482932  0.04041570    -0.06000
H679        H  0.65753263  0.58921617  0.07679127     0.06500
H680        H  0.74397282  0.56177431  0.04911896     0.09900
Br681      Br  0.65017479  0.56447755  0.00759876    -0.05700
Br682      Br  0.66308550  0.68921463  0.02659685    -0.02600
Br683      Br  0.67345078  0.55506135  0.11692846     0.00200
Br684      Br  0.72643511  0.59726965  0.00944194    -0.04100
C685        C  0.63850857  0.36582819  0.00261250    -0.11500
C686        C  0.63199278  0.39190185  0.00263427     0.03900
C687        C  0.64623814  0.40899770  0.01741671    -0.12100
C688        C  0.66696752  0.40032386  0.03208758     0.18800
C689        C  0.67328048  0.37422441  0.03219212    -0.09100
C690        C  0.65898796  0.35717666  0.01757204    -0.02100
H691        H  0.64121552  0.42907273  0.01745512     0.05300
C692        C  0.68200611  0.41866001  0.04712699     0.20800
H693        H  0.66413981  0.33712580  0.01749278     0.10500
C694        C  0.67913110  0.41912780  0.07371194    -0.15500
C695        C  0.69399107  0.43540944  0.08875976     0.03500
C696        C  0.71197034  0.45186115  0.07701913    -0.10800
C697        C  0.71478638  0.45117167  0.05029388    -0.00800
C698        C  0.69999556  0.43474245  0.03536992    -0.06000
H699        H  0.66555607  0.40639475  0.08281064     0.06500
H700        H  0.72846531  0.46355715  0.04089234     0.09900
Br701      Br  0.70183507  0.36120467  0.05122588    -0.05700
Br702      Br  0.60348894  0.40472536  0.98341528    -0.02600
Br703      Br  0.68977568  0.43276762  0.12513859     0.00200
Br704      Br  0.70554912  0.43422327  0.99911838    -0.04100
C705        C  0.00592409  0.28805698  0.58826072    -0.11500
C706        C  0.00368792  0.29287973  0.56181110     0.03900
C707        C  0.01992753  0.28042675  0.54458280    -0.12100
C708        C  0.03874939  0.26341547  0.55324069     0.18800
C709        C  0.04182625  0.25946780  0.57966117    -0.09100
C710        C  0.02538122  0.27162338  0.59691400    -0.02100
H711        H  0.01785692  0.28399905  0.52429039     0.05300
C712        C  0.05462286  0.24975824  0.53426633     0.20800
H713        H  0.02771395  0.26814903  0.61719432     0.10500
C714        C  0.07350113  0.26310487  0.52075211    -0.15500
C715        C  0.08777698  0.25117502  0.50147632     0.03500
C716        C  0.08299420  0.22525118  0.49524106    -0.10800
C717        C  0.06417046  0.21197444  0.50920490    -0.00800
C718        C  0.05008252  0.22395975  0.52847311    -0.06000
H719        H  0.07694162  0.28304639  0.52506347     0.06500
H720        H  0.06010948  0.19213687  0.50500444     0.09900
Br721      Br  0.06854695  0.23811300  0.59295212    -0.05700
Br722      Br  0.98003735  0.31745106  0.54823605    -0.02600
Br723      Br  0.11258848  0.27203476  0.48419218     0.00200
Br724      Br  0.02404423  0.20461201  0.54564224    -0.04100
C725        C  0.07469595  0.22376433  0.38687684    -0.11500
C726        C  0.05425672  0.21193687  0.37359162     0.03900
C727        C  0.03971891  0.22607345  0.35610500    -0.12100
C728        C  0.04505262  0.25187053  0.35138576     0.18800
C729        C  0.06513689  0.26376988  0.36469109    -0.09100
C730        C  0.07973699  0.24975493  0.38214973    -0.02100
H731        H  0.02427066  0.21681254  0.34587402     0.05300
C732        C  0.02979982  0.26588172  0.33212101     0.20800
H733        H  0.09514931  0.25935471  0.39209970     0.10500
C734        C  0.01287590  0.28514245  0.34002815    -0.15500
C735        C  0.99838032  0.29885097  0.32216219     0.03500
C736        C  0.00062977  0.29319879  0.29591926    -0.10800
C737        C  0.01761663  0.27397455  0.28807272    -0.00800
C738        C  0.03208734  0.26030979  0.30590282    -0.06000
H739        H  0.01112472  0.28965052  0.36015186     0.06500
H740        H  0.01960463  0.26957233  0.26794773     0.09900
Br741      Br  0.07392435  0.29889937  0.35902726    -0.05700
Br742      Br  0.04551705  0.17648919  0.37724096    -0.02600
Br743      Br  0.97696197  0.32597818  0.33440814     0.00200
Br744      Br  0.05532654  0.23479662  0.29346760    -0.04100
C745        C  0.49545813  0.21740531  0.80143457    -0.11500
C746        C  0.50538397  0.21203712  0.82607747     0.03900
C747        C  0.52353976  0.22843561  0.83691628    -0.12100
C748        C  0.53201627  0.25011954  0.82374118     0.18800
C749        C  0.52255289  0.25536023  0.79925801    -0.09100
C750        C  0.50454021  0.23910527  0.78831056    -0.02100
H751        H  0.53092133  0.22442570  0.85585038     0.05300
C752        C  0.55051566  0.26737293  0.83590915     0.20800
H753        H  0.49741235  0.24378633  0.76944793     0.10500
C754        C  0.57663827  0.26424020  0.83088351    -0.15500
C755        C  0.59475902  0.28001435  0.84254751     0.03500
C756        C  0.58664087  0.29958369  0.85923824    -0.10800
C757        C  0.56032390  0.30297127  0.86370193    -0.00800
C758        C  0.54231845  0.28690642  0.85235980    -0.06000
H759        H  0.58295157  0.24908137  0.81828284     0.06500
H760        H  0.55379723  0.31781469  0.87656572     0.09900
Br761      Br  0.53325430  0.28492271  0.78038564    -0.05700
Br762      Br  0.49503921  0.18332003  0.84647032    -0.02600
Br763      Br  0.63019658  0.27235566  0.83669333     0.00200
Br764      Br  0.50680674  0.29185903  0.86027196    -0.04100
C765        C  0.29257885  0.29000155  0.87057496    -0.11500
C766        C  0.29353737  0.26312792  0.87095282     0.03900
C767        C  0.31360708  0.25045526  0.85885668    -0.12100
C768        C  0.33299264  0.26420290  0.84654052     0.18800
C769        C  0.33224925  0.29107507  0.84636984    -0.09100
C770        C  0.31198076  0.30382127  0.85827528    -0.02100
H771        H  0.31395464  0.22976320  0.85876028     0.05300
C772        C  0.35284469  0.24994792  0.83265348     0.20800
H773        H  0.31151368  0.32450541  0.85825393     0.10500
C774        C  0.35193490  0.24948019  0.80592905    -0.15500
C775        C  0.36911258  0.23459952  0.79196242     0.03500
C776        C  0.38782445  0.22001794  0.80488891    -0.10800
C777        C  0.38858915  0.22047052  0.83172834    -0.00800
C778        C  0.37124975  0.23526699  0.84563437    -0.06000
H779        H  0.33730958  0.26024024  0.79593251     0.06500
H780        H  0.40283697  0.20942123  0.84193827     0.09900
Br781      Br  0.35884976  0.31095552  0.83080483    -0.05700
Br782      Br  0.26739358  0.24286637  0.88689436    -0.02600
Br783      Br  0.36446398  0.23346699  0.75556221     0.00200
Br784      Br  0.37352371  0.23511290  0.88223926    -0.04100
C785        C  0.23326233  0.08173427  0.58307053    -0.11500
C786        C  0.20896427  0.09222176  0.58793222     0.03900
C787        C  0.19654305  0.10630019  0.56898154    -0.12100
C788        C  0.20809606  0.11014369  0.54514081     0.18800
C789        C  0.23263769  0.10012770  0.54039901    -0.09100
C790        C  0.24505761  0.08588804  0.55936046    -0.02100
H791        H  0.17765190  0.11398774  0.57269710     0.05300
C792        C  0.19368111  0.12393566  0.52529992     0.20800
H793        H  0.26379379  0.07788142  0.55556915     0.10500
C794        C  0.19589359  0.15051075  0.52355145    -0.15500
C795        C  0.18101889  0.16435364  0.50614504     0.03500
C796        C  0.16358732  0.15139410  0.49002122    -0.10800
C797        C  0.16158846  0.12468035  0.49188144    -0.00800
C798        C  0.17642400  0.11097665  0.50934514    -0.06000
H799        H  0.20885981  0.16055883  0.53618877     0.06500
H800        H  0.14843681  0.11434799  0.47967682     0.09900
Br801      Br  0.24950047  0.10514762  0.50824316    -0.05700
Br802      Br  0.19183458  0.08719856  0.61997666    -0.02600
Br803      Br  0.18422574  0.20088759  0.50690014     0.00200
Br804      Br  0.17226908  0.07461284  0.51113633    -0.04100
C805        C  0.28773410  0.07407849  0.66093436    -0.11500
C806        C  0.31180750  0.06304846  0.66669984     0.03900
C807        C  0.32851123  0.07544736  0.68337447    -0.12100
C808        C  0.32217396  0.09912662  0.69391836     0.18800
C809        C  0.29838751  0.11029835  0.68826435    -0.09100
C810        C  0.28120947  0.09760200  0.67217536    -0.02100
H811        H  0.34719180  0.06723469  0.68707521     0.05300
C812        C  0.34217405  0.11329271  0.70767694     0.20800
H813        H  0.26300020  0.10649606  0.66783539     0.10500
C814        C  0.35978495  0.12732235  0.69328976    -0.15500
C815        C  0.38000903  0.14007153  0.70505269     0.03500
C816        C  0.38269927  0.13908814  0.73195001    -0.10800
C817        C  0.36510684  0.12467293  0.74631151    -0.00800
C818        C  0.34494148  0.11177876  0.73433647    -0.06000
H819        H  0.35799636  0.12797295  0.67266217     0.06500
H820        H  0.36689918  0.12358747  0.76690667     0.09900
Br821      Br  0.28944534  0.14354209  0.70077430    -0.05700
Br822      Br  0.32476399  0.03296264  0.65014234    -0.02600
Br823      Br  0.40401977  0.15682286  0.68280413     0.00200
Br824      Br  0.32179551  0.09213654  0.75487278    -0.04100
C825        C  0.21881119  0.94274171  0.58258274    -0.11500
C826        C  0.22364932  0.94608386  0.55628812     0.03900
C827        C  0.21051727  0.93124746  0.53836775    -0.12100
C828        C  0.19245165  0.91308517  0.54624902     0.18800
C829        C  0.18716733  0.91017154  0.57247513    -0.09100
C830        C  0.20045261  0.92484728  0.59043569    -0.02100
H831        H  0.21476686  0.93350473  0.51822564     0.05300
C832        C  0.17987220  0.89684687  0.52689239     0.20800
H833        H  0.19668534  0.92209754  0.61061127     0.10500
C834        C  0.18660352  0.87098984  0.52510519    -0.15500
C835        C  0.17501463  0.85498967  0.50706357     0.03500
C836        C  0.15625399  0.86496749  0.49027873    -0.10800
C837        C  0.14972732  0.89097843  0.49217590    -0.00800
C838        C  0.16138040  0.90685783  0.51018224    -0.06000
H839        H  0.20085662  0.86319289  0.53797251     0.06500
H840        H  0.13550237  0.89912823  0.47950610     0.09900
Br841      Br  0.16181578  0.88657153  0.58451590    -0.05700
Br842      Br  0.24924361  0.96935074  0.54401093    -0.02600
Br843      Br  0.18492731  0.81966418  0.50750873     0.00200
Br844      Br  0.15090972  0.94193981  0.51176806    -0.04100
C845        C  0.57874577  0.06406341  0.65340076    -0.11500
C846        C  0.55338215  0.05510636  0.65657465     0.03900
C847        C  0.53632523  0.06862638  0.67206087    -0.12100
C848        C  0.54385977  0.09129654  0.68400099     0.18800
C849        C  0.56896953  0.10033455  0.68086288    -0.09100
C850        C  0.58625142  0.08662871  0.66583745    -0.02100
H851        H  0.51683838  0.06187743  0.67417223     0.05300
C852        C  0.52499040  0.10581899  0.69892794     0.20800
H853        H  0.60555309  0.09382355  0.66356990     0.10500
C854        C  0.52099831  0.09958251  0.72460988    -0.15500
C855        C  0.50376791  0.11352677  0.73957353     0.03500
C856        C  0.49012530  0.13423575  0.72862712    -0.10800
C857        C  0.49410102  0.14005434  0.70265334    -0.00800
C858        C  0.51126523  0.12601742  0.68784428    -0.06000
H859        H  0.53160286  0.08395352  0.73311832     0.06500
H860        H  0.48373800  0.15556292  0.69366414     0.09900
Br861      Br  0.58014565  0.13167270  0.69619028    -0.05700
Br862      Br  0.53996083  0.02607244  0.63855312    -0.02600
Br863      Br  0.50086453  0.10346847  0.77477297     0.00200
Br864      Br  0.51537007  0.13500403  0.65252002    -0.04100
C865        C  0.79967591  0.19963067  0.37711889    -0.11500
C866        C  0.82306388  0.19006762  0.36716939     0.03900
C867        C  0.83605505  0.20372490  0.34806544    -0.12100
C868        C  0.82629715  0.22681962  0.33861189     0.18800
C869        C  0.80300483  0.23615392  0.34817215    -0.09100
C870        C  0.78996479  0.22263857  0.36708360    -0.02100
H871        H  0.85407559  0.19651031  0.34079746     0.05300
C872        C  0.84106540  0.24193160  0.31984853     0.20800
H873        H  0.77220090  0.23055906  0.37421646     0.10500
C874        C  0.83210881  0.24423166  0.29465968    -0.15500
C875        C  0.84376797  0.26109623  0.27741729     0.03500
C876        C  0.86454726  0.27629519  0.28550264    -0.10800
C877        C  0.87403972  0.27309916  0.31046691    -0.00800
C878        C  0.86264030  0.25600699  0.32749459    -0.06000
H879        H  0.81569635  0.23316674  0.28855446     0.06500
H880        H  0.89008679  0.28445017  0.31701128     0.09900
Br881      Br  0.78880778  0.26805284  0.33689641    -0.05700
Br882      Br  0.83887785  0.15899959  0.37868270    -0.02600
Br883      Br  0.83123285  0.26172916  0.24295196     0.00200
Br884      Br  0.87641617  0.25353822  0.36140871    -0.04100
C885        C  0.80181414  0.20607371  0.48464828    -0.11500
C886        C  0.80353455  0.23300943  0.48361942     0.03900
C887        C  0.81769268  0.24615553  0.50207681    -0.12100
C888        C  0.83047138  0.23300669  0.52160368     0.18800
C889        C  0.82948825  0.20615509  0.52222453    -0.09100
C890        C  0.81533764  0.19291506  0.50378399    -0.02100
H891        H  0.81856119  0.26681785  0.50134508     0.05300
C892        C  0.84361398  0.24777904  0.54179266     0.20800
H893        H  0.81449365  0.17226653  0.50473544     0.10500
C894        C  0.83319520  0.24814183  0.56650105    -0.15500
C895        C  0.84429539  0.26285744  0.58586135     0.03500
C896        C  0.86613055  0.27775517  0.58054246    -0.10800
C897        C  0.87674966  0.27704672  0.55585665    -0.00800
C898        C  0.86568251  0.26226263  0.53655207    -0.06000
H899        H  0.81625344  0.23697572  0.57069690     0.06500
H900        H  0.89356747  0.28833223  0.55148243     0.09900
Br901      Br  0.84740418  0.18683124  0.54773754    -0.05700
Br902      Br  0.78811435  0.25301323  0.45694366    -0.02600
Br903      Br  0.82956387  0.26093411  0.61939152     0.00200
Br904      Br  0.88160654  0.26209695  0.50350353    -0.04100
C905        C  0.71710028  0.13416689  0.48986339    -0.11500
C906        C  0.70213010  0.14826496  0.50744428     0.03900
C907        C  0.68702233  0.13542988  0.52544629    -0.12100
C908        C  0.68646917  0.10870501  0.52627570     0.18800
C909        C  0.70101651  0.09463233  0.50859987    -0.09100
C910        C  0.71632480  0.10735318  0.49077826    -0.02100
H911        H  0.67588287  0.14633306  0.53908053     0.05300
C912        C  0.67094032  0.09569979  0.54591821     0.20800
H913        H  0.72728124  0.09618180  0.47721698     0.10500
C914        C  0.64434371  0.09393326  0.54273714    -0.15500
C915        C  0.62937748  0.08043723  0.56035202     0.03500
C916        C  0.64109327  0.06852418  0.58144203    -0.10800
C917        C  0.66761699  0.07069351  0.58484548    -0.00800
C918        C  0.68253554  0.08433260  0.56737813    -0.06000
H919        H  0.63531014  0.10264443  0.52625982     0.06500
H920        H  0.67671447  0.06175565  0.60117031     0.09900
Br921      Br  0.69994700  0.05800596  0.50769596    -0.05700
Br922      Br  0.70236003  0.18491339  0.50890445    -0.02600
Br923      Br  0.59327643  0.07771553  0.55433174     0.00200
Br924      Br  0.71861119  0.08716911  0.57361009    -0.04100
C925        C  0.71674566  0.12819893  0.38245167    -0.11500
C926        C  0.69717160  0.13996328  0.36781222     0.03900
C927        C  0.68329663  0.12558473  0.35009973    -0.12100
C928        C  0.68826439  0.09957862  0.34659922     0.18800
C929        C  0.70758700  0.08772267  0.36103799    -0.09100
C930        C  0.72162398  0.10200149  0.37874741    -0.02100
H931        H  0.66856710  0.13480352  0.33879568     0.05300
C932        C  0.67371838  0.08560836  0.32691219     0.20800
H933        H  0.73643764  0.09248740  0.38966417     0.10500
C934        C  0.67941353  0.09004671  0.30111876    -0.15500
C935        C  0.66548692  0.07797365  0.28180464     0.03500
C936        C  0.64534284  0.06127354  0.28823714    -0.10800
C937        C  0.63976486  0.05669936  0.31408773    -0.00800
C938        C  0.65368847  0.06885521  0.33340508    -0.06000
H939        H  0.69483698  0.10290327  0.29602251     0.06500
H940        H  0.62432492  0.04388239  0.31922332     0.09900
Br941      Br  0.71587386  0.05228879  0.35669305    -0.05700
Br942      Br  0.68861050  0.17560652  0.36986173    -0.02600
Br943      Br  0.67550870  0.08399985  0.24702359     0.00200
Br944      Br  0.64422287  0.06272222  0.36829332    -0.04100
C945        C  0.58068188  0.92495661  0.21686404    -0.11500
C946        C  0.58490558  0.91817138  0.19119995     0.03900
C947        C  0.56597864  0.90496765  0.17770836    -0.12100
C948        C  0.54283578  0.89841935  0.18959587     0.18800
C949        C  0.53868016  0.90518195  0.21529142    -0.09100
C950        C  0.55757858  0.91840962  0.22873991    -0.02100
H951        H  0.56930852  0.89972888  0.15796041     0.05300
C952        C  0.52325855  0.88427315  0.17511882     0.20800
H953        H  0.55424948  0.92366226  0.24848686     0.10500
C954        C  0.51995229  0.85817667  0.17985095    -0.15500
C955        C  0.50084447  0.84429520  0.16734592     0.03500
C956        C  0.48441680  0.85675358  0.14976273    -0.10800
C957        C  0.48828207  0.88287794  0.14474077    -0.00800
C958        C  0.50748981  0.89660677  0.15722305    -0.06000
H959        H  0.53232355  0.84858050  0.19342644     0.06500
H960        H  0.47607838  0.89284453  0.13129694     0.09900
Br961      Br  0.50728319  0.89716445  0.23251747    -0.05700
Br962      Br  0.61625983  0.92650023  0.17405363    -0.02600
Br963      Br  0.49932368  0.80835330  0.17462667     0.00200
Br964      Br  0.51100297  0.93233335  0.14988226    -0.04100
C965        C  0.38143497  0.21453627  0.07478947    -0.11500
C966        C  0.37369482  0.23971184  0.08114812     0.03900
C967        C  0.35314840  0.25100240  0.06824547    -0.12100
C968        C  0.34013322  0.23788278  0.04894266     0.18800
C969        C  0.34763184  0.21297595  0.04252408    -0.09100
C970        C  0.36799362  0.20146924  0.05546149    -0.02100
H971        H  0.34762206  0.27040263  0.07288522     0.05300
C972        C  0.32020851  0.25133274  0.03427808     0.20800
H973        H  0.37340430  0.18221782  0.05017205     0.10500
C974        C  0.32748560  0.26484226  0.01239753    -0.15500
C975        C  0.30958823  0.27889213  0.99846240     0.03500
C976        C  0.28363642  0.27910017  0.00613076    -0.10800
C977        C  0.27640067  0.26546236  0.02812727    -0.00800
C978        C  0.29452699  0.25174243  0.04227348    -0.06000
H979        H  0.34737496  0.26497327  0.00652486     0.06500
H980        H  0.25666352  0.26572236  0.03445684     0.09900
Br981      Br  0.33086547  0.19427551  0.01583113    -0.05700
Br982      Br  0.39070583  0.26062650  0.10607070    -0.02600
Br983      Br  0.32242654  0.29925029  0.97070071     0.00200
Br984      Br  0.28366868  0.23430230  0.07262001    -0.04100
C985        C  0.58240111  0.28959399  0.99596862    -0.11500
C986        C  0.58982650  0.27506095  0.01744353     0.03900
C987        C  0.57181459  0.25977835  0.02999070    -0.12100
C988        C  0.54645909  0.25861430  0.02135830     0.18800
C989        C  0.53924224  0.27234135  0.99941934    -0.09100
C990        C  0.55720075  0.28759968  0.98683845    -0.02100
H991        H  0.57747922  0.24907157  0.04679002     0.05300
C992        C  0.52740612  0.24439737  0.03647855     0.20800
H993        H  0.55121420  0.29870634  0.97041222     0.10500
C994        C  0.51470575  0.25702415  0.05631150    -0.15500
C995        C  0.49651916  0.24439887  0.07128832     0.03500
C996        C  0.49077873  0.21837059  0.06646144    -0.10800
C997        C  0.50356259  0.20590813  0.04630192    -0.00800
C998        C  0.52178827  0.21868262  0.03144882    -0.06000
H999        H  0.51894224  0.27692552  0.06009007     0.06500
H1000       H  0.49964063  0.18601953  0.04220972     0.09900
Br1001     Br  0.50482901  0.27160175  0.98669152    -0.05700
Br1002     Br  0.62431916  0.27497262  0.03006882    -0.02600
Br1003     Br  0.48005214  0.26451626  0.09724434     0.00200
Br1004     Br  0.53876111  0.20036519  0.00462705    -0.04100
C1005       C  0.58471766  0.06393765  0.21488119    -0.11500
C1006       C  0.55802704  0.06022478  0.21614243     0.03900
C1007       C  0.54181690  0.07505266  0.20096609    -0.12100
C1008       C  0.55183122  0.09358821  0.18444901     0.18800
C1009       C  0.57846630  0.09713045  0.18294359    -0.09100
C1010       C  0.59473402  0.08240174  0.19822809    -0.02100
H1011       H  0.52129438  0.07243909  0.20234607     0.05300
C1012       C  0.53403304  0.10972517  0.16976798     0.20800
H1013       H  0.61522670  0.08534514  0.19715355     0.10500
C1014       C  0.52852284  0.13432689  0.17860079    -0.15500
C1015       C  0.51065005  0.14976926  0.16605541     0.03500
C1016       C  0.49773000  0.14040409  0.14413595    -0.10800
C1017       C  0.50394209  0.11582105  0.13510364    -0.00800
C1018       C  0.52184503  0.10054384  0.14773615    -0.06000
H1019       H  0.53802532  0.14143804  0.19557134     0.06500
H1020       H  0.49454841  0.10814632  0.11833885     0.09900
Br1021     Br  0.59327170  0.12165778  0.16009641    -0.05700
Br1022     Br  0.54270808  0.03627584  0.23936494    -0.02600
Br1023     Br  0.50535939  0.18319934  0.18025613     0.00200
Br1024     Br  0.52913886  0.06724492  0.13430910    -0.04100
C1025       C  0.23001863  0.07617498  0.29451551    -0.11500
C1026       C  0.20343323  0.07924501  0.29115823     0.03900
C1027       C  0.18939396  0.09382350  0.30867550    -0.12100
C1028       C  0.20149960  0.10550620  0.32954622     0.18800
C1029       C  0.22798301  0.10214740  0.33308628    -0.09100
C1030       C  0.24202203  0.08773166  0.31553715    -0.02100
H1031       H  0.16898843  0.09624017  0.30591917     0.05300
C1032       C  0.18605042  0.12042614  0.34786988     0.20800
H1033       H  0.26241220  0.08530698  0.31842529     0.10500
C1034       C  0.17024505  0.10741850  0.36509391    -0.15500
C1035       C  0.15576286  0.12068757  0.38322826     0.03500
C1036       C  0.15673151  0.14770716  0.38410845    -0.10800
C1037       C  0.17257687  0.16064957  0.36664757    -0.00800
C1038       C  0.18708077  0.14726113  0.34859198    -0.06000
H1039       H  0.16958616  0.08673740  0.36474493     0.06500
H1040       H  0.17363223  0.18130611  0.36694214     0.09900
Br1041     Br  0.24562674  0.11619480  0.36199714    -0.05700
Br1042     Br  0.18568813  0.06499509  0.26242855    -0.02600
Br1043     Br  0.13671293  0.10036706  0.40718013     0.00200
Br1044     Br  0.20774359  0.16637097  0.32506234    -0.04100
C1045       C  0.30222804  0.07379310  0.23281935    -0.11500
C1046       C  0.32831857  0.06677556  0.23332821     0.03900
C1047       C  0.34587989  0.07971820  0.21783373    -0.12100
C1048       C  0.33792061  0.09990778  0.20213229     0.18800
C1049       C  0.31213609  0.10753071  0.20230694    -0.09100
C1050       C  0.29451159  0.09440837  0.21744435    -0.02100
H1051       H  0.36584612  0.07413928  0.21812212     0.05300
C1052       C  0.35667528  0.11282001  0.18555070     0.20800
H1053       H  0.27460609  0.10019558  0.21703792     0.10500
C1054       C  0.35703984  0.10718316  0.15939452    -0.15500
C1055       C  0.37390969  0.11973851  0.14285240     0.03500
C1056       C  0.39083630  0.13845626  0.15258676    -0.10800
C1057       C  0.39041762  0.14381392  0.17895118    -0.00800
C1058       C  0.37360659  0.13114190  0.19537454    -0.06000
H1059       H  0.34386555  0.09314000  0.15178038     0.06500
H1060       H  0.40324835  0.15796211  0.18692561     0.09900
Br1061     Br  0.30031683  0.13610199  0.18259179    -0.05700
Br1062     Br  0.34129801  0.04088141  0.25585919    -0.02600
Br1063     Br  0.37161042  0.11116573  0.10724467     0.00200
Br1064     Br  0.37386638  0.13994726  0.23095855    -0.04100
C1065       C  0.22635980  0.93717990  0.29292671    -0.11500
C1066       C  0.23233300  0.93742973  0.31917646     0.03900
C1067       C  0.21774100  0.92290690  0.33616901    -0.12100
C1068       C  0.19718333  0.90815714  0.32736819     0.18800
C1069       C  0.19074409  0.90846809  0.30128011    -0.09100
C1070       C  0.20550708  0.92272707  0.28422354    -0.02100
H1071       H  0.22263430  0.92282537  0.35629232     0.05300
C1072       C  0.18268297  0.89272130  0.34585011     0.20800
H1073       H  0.20062218  0.92269725  0.26409813     0.10500
C1074       C  0.16671088  0.90513606  0.36333302    -0.15500
C1075       C  0.15345148  0.89133493  0.38192287     0.03500
C1076       C  0.15608675  0.86448018  0.38309095    -0.10800
C1077       C  0.17232861  0.85214456  0.36562240    -0.00800
C1078       C  0.18561606  0.86605123  0.34710449    -0.06000
H1079       H  0.16484779  0.92573999  0.36270671     0.06500
H1080       H  0.17471778  0.83160361  0.36636151     0.09900
Br1081     Br  0.16162855  0.89031177  0.28830730    -0.05700
Br1082     Br  0.26087178  0.95617991  0.33259139    -0.02600
Br1083     Br  0.13374644  0.91068698  0.40614556     0.00200
Br1084     Br  0.20827190  0.84799945  0.32458777    -0.04100
C1085       C  0.37239749  0.85735353  0.15042582    -0.11500
C1086       C  0.36396458  0.85070491  0.17533907     0.03900
C1087       C  0.34506301  0.86538404  0.18736877    -0.12100
C1088       C  0.33392750  0.88633362  0.17499116     0.18800
C1089       C  0.34121920  0.89221353  0.14987660    -0.09100
C1090       C  0.36030154  0.87788686  0.13786391    -0.02100
H1091       H  0.33940191  0.86079698  0.20675817     0.05300
C1092       C  0.31686469  0.90343366  0.18952649     0.20800
H1093       H  0.36585503  0.88311485  0.11861996     0.10500
C1094       C  0.32795671  0.92267432  0.20441926    -0.15500
C1095       C  0.31282928  0.93883881  0.21933608     0.03500
C1096       C  0.28597118  0.93595776  0.21936183    -0.10800
C1097       C  0.27486458  0.91679902  0.20415195    -0.00800
C1098       C  0.29011074  0.90059541  0.18926221    -0.06000
H1099       H  0.34858402  0.92476633  0.20482580     0.06500
H1100       H  0.25430009  0.91418410  0.20421089     0.09900
Br1101     Br  0.32606989  0.92014837  0.13159778    -0.05700
Br1102     Br  0.37754429  0.82261273  0.19472130    -0.02600
Br1103     Br  0.33016164  0.96294067  0.24088573     0.00200
Br1104     Br  0.27380861  0.87451829  0.16938329    -0.04100
C1105       C  0.72608342  0.86566986  0.37613644    -0.11500
C1106       C  0.73101608  0.89120063  0.36863155     0.03900
C1107       C  0.71695418  0.90210154  0.34871068    -0.12100
C1108       C  0.69791908  0.88819685  0.33605953     0.18800
C1109       C  0.69325646  0.86273295  0.34306176    -0.09100
C1110       C  0.70723234  0.85171365  0.36294915    -0.02100
H1111       H  0.72052443  0.92177112  0.34333566     0.05300
C1112       C  0.68226855  0.90105616  0.31651176     0.20800
H1113       H  0.70320076  0.83209746  0.36814259     0.10500
C1114       C  0.68501197  0.89432615  0.29069739    -0.15500
C1115       C  0.67032107  0.90637202  0.27184938     0.03500
C1116       C  0.65270183  0.92546054  0.27888529    -0.10800
C1117       C  0.65014842  0.93221366  0.30470397    -0.00800
C1118       C  0.66471992  0.92019306  0.32347429    -0.06000
H1119       H  0.69871118  0.87978546  0.28523546     0.06500
H1120       H  0.63651442  0.94677372  0.31030690     0.09900
Br1121     Br  0.66731182  0.84261358  0.32670472    -0.05700
Br1122     Br  0.75558213  0.91298749  0.38509071    -0.02600
Br1123     Br  0.67582790  0.89706090  0.23683864     0.00200
Br1124     Br  0.65941078  0.93004925  0.35841560    -0.04100
C1125       C  0.80286707  0.79395536  0.48894499    -0.11500
C1126       C  0.79565961  0.76972120  0.49872598     0.03900
C1127       C  0.81035803  0.75820295  0.51784501    -0.12100
C1128       C  0.83227841  0.77010902  0.52748357     0.18800
C1129       C  0.83956222  0.79408518  0.51798115    -0.09100
C1130       C  0.82486801  0.80584941  0.49900622    -0.02100
H1131       H  0.80490417  0.73955138  0.52499276     0.05300
C1132       C  0.84798864  0.75633395  0.54637900     0.20800
H1133       H  0.83088512  0.82436336  0.49200531     0.10500
C1134       C  0.86998537  0.74356650  0.53800887    -0.15500
C1135       C  0.88372829  0.72769855  0.55453322     0.03500
C1136       C  0.87571340  0.72486863  0.58019059    -0.10800
C1137       C  0.85406166  0.73837647  0.58867311    -0.00800
C1138       C  0.84008795  0.75382468  0.57193143    -0.06000
H1139       H  0.87580288  0.74506211  0.51818588     0.06500
H1140       H  0.84760057  0.73635134  0.60824313     0.09900
Br1141     Br  0.86938777  0.81139565  0.53045945    -0.05700
Br1142     Br  0.76667359  0.75047628  0.48689626    -0.02600
Br1143     Br  0.91136013  0.70832783  0.53998689     0.00200
Br1144     Br  0.80992132  0.77052159  0.58446925    -0.04100
C1145       C  0.72326267  0.86915667  0.48521201    -0.11500
C1146       C  0.69743920  0.86314340  0.49090019     0.03900
C1147       C  0.68463036  0.87647554  0.51011611    -0.12100
C1148       C  0.69674166  0.89613296  0.52350544     0.18800
C1149       C  0.72196803  0.90292934  0.51733130    -0.09100
C1150       C  0.73508639  0.88938321  0.49841981    -0.02100
H1151       H  0.66493614  0.87168067  0.51449849     0.05300
C1152       C  0.68229622  0.90955979  0.54348449     0.20800
H1153       H  0.75467626  0.89464249  0.49417974     0.10500
C1154       C  0.68441849  0.90144899  0.56894180    -0.15500
C1155       C  0.66928243  0.91249595  0.58802550     0.03500
C1156       C  0.65181623  0.93194195  0.58157011    -0.10800
C1157       C  0.65016553  0.94032267  0.55612222    -0.00800
C1158       C  0.66516467  0.92921414  0.53710281    -0.06000
H1159       H  0.69763480  0.88628221  0.57387535     0.06500
H1160       H  0.63677779  0.95527192  0.55096420     0.09900
Br1161     Br  0.73891078  0.93085733  0.53390536    -0.05700
Br1162     Br  0.67768936  0.83811878  0.47266246    -0.02600
Br1163     Br  0.67361242  0.90096997  0.62255305     0.00200
Br1164     Br  0.66139792  0.94109636  0.50260744    -0.04100
C1165       C  0.80302875  0.79196416  0.37873290    -0.11500
C1166       C  0.82358230  0.80272395  0.36468659     0.03900
C1167       C  0.83605213  0.78811599  0.34610644    -0.12100
C1168       C  0.82827977  0.76309268  0.34098508     0.18800
C1169       C  0.80749331  0.75257769  0.35427251    -0.09100
C1170       C  0.79508044  0.76694566  0.37293968    -0.02100
H1171       H  0.85208445  0.79620217  0.33575662     0.05300
C1172       C  0.84321963  0.74742283  0.32315723     0.20800
H1173       H  0.77927013  0.75828495  0.38314159     0.10500
C1174       C  0.86185392  0.73108505  0.33320683    -0.15500
C1175       C  0.87552174  0.71467189  0.31731026     0.03500
C1176       C  0.87071159  0.71468678  0.29076918    -0.10800
C1177       C  0.85210057  0.73122363  0.28069934    -0.00800
C1178       C  0.83837959  0.74761596  0.29673949    -0.06000
H1179       H  0.86532660  0.73070138  0.35362228     0.06500
H1180       H  0.84817421  0.73126242  0.26036918     0.09900
Br1181     Br  0.79562236  0.71854117  0.34763817    -0.05700
Br1182     Br  0.83555757  0.83713557  0.36907403    -0.02600
Br1183     Br  0.89906317  0.69138457  0.33323776     0.00200
Br1184     Br  0.81277584  0.76939052  0.28208045    -0.04100
C1185       C  0.37313251  0.78943814  0.79515750    -0.11500
C1186       C  0.35660673  0.77151707  0.78336085     0.03900
C1187       C  0.33844761  0.75847405  0.79798448    -0.12100
C1188       C  0.33581309  0.76319544  0.82418057     0.18800
C1189       C  0.35149202  0.78166752  0.83583341    -0.09100
C1190       C  0.36991984  0.79459373  0.82135307    -0.02100
H1191       H  0.32638053  0.74433086  0.78887354     0.05300
C1192       C  0.31760398  0.74754226  0.83912168     0.20800
H1193       H  0.38208877  0.80841441  0.83079284     0.10500
C1194       C  0.32725988  0.73030864  0.85723416    -0.15500
C1195       C  0.31093067  0.71388101  0.87051848     0.03500
C1196       C  0.28437514  0.71451987  0.86572556    -0.10800
C1197       C  0.27468745  0.73170947  0.84757671    -0.00800
C1198       C  0.29106429  0.74821475  0.83433868    -0.06000
H1199       H  0.34768971  0.72923626  0.86061100     0.06500
H1200       H  0.25432357  0.73229373  0.84373598     0.09900
Br1201     Br  0.34818817  0.79009702  0.87136392    -0.05700
Br1202     Br  0.35678855  0.76423963  0.74735791    -0.02600
Br1203     Br  0.32611411  0.68975451  0.89366594     0.00200
Br1204     Br  0.27629731  0.77160911  0.81026622    -0.04100
C1205       C  0.48645511  0.85884056  0.71669042    -0.11500
C1206       C  0.50087910  0.84619298  0.69755941     0.03900
C1207       C  0.51887099  0.85978306  0.68317290    -0.12100
C1208       C  0.52288512  0.88587378  0.68729573     0.18800
C1209       C  0.50870179  0.89855105  0.70627467    -0.09100
C1210       C  0.49081064  0.88502540  0.72087677    -0.02100
H1211       H  0.52986291  0.84993047  0.66864298     0.05300
C1212       C  0.54206168  0.89948646  0.67164923     0.20800
H1213       H  0.47995155  0.89518614  0.73527969     0.10500
C1214       C  0.53384077  0.91564791  0.65190347    -0.15500
C1215       C  0.55156375  0.92901392  0.63695571     0.03500
C1216       C  0.57797202  0.92634937  0.64180805    -0.10800
C1217       C  0.58616244  0.90964618  0.66112799    -0.00800
C1218       C  0.56844047  0.89627204  0.67602964    -0.06000
H1219       H  0.51357214  0.91782943  0.64812172     0.06500
H1220       H  0.60641462  0.90746551  0.66501264     0.09900
Br1221     Br  0.51336500  0.93425767  0.71301021    -0.05700
Br1222     Br  0.49794993  0.81033057  0.69039673    -0.02600
Br1223     Br  0.53886676  0.94983146  0.60955082     0.00200
Br1224     Br  0.58103332  0.87455703  0.70275942    -0.04100
C1225       C  0.48198836  0.78023351  0.79418136    -0.11500
C1226       C  0.49710643  0.76153195  0.78175239     0.03900
C1227       C  0.51449982  0.74681833  0.79583228    -0.12100
C1228       C  0.51735077  0.75023654  0.82222857     0.18800
C1229       C  0.50259996  0.76900250  0.83465062    -0.09100
C1230       C  0.48510095  0.78371201  0.82067307    -0.02100
H1231       H  0.52616450  0.73277616  0.78605138     0.05300
C1232       C  0.53699885  0.73511444  0.83599876     0.20800
H1233       H  0.47389019  0.79798361  0.83063115     0.10500
C1234       C  0.56292221  0.74035757  0.83148825    -0.15500
C1235       C  0.58219249  0.72670113  0.84410956     0.03500
C1236       C  0.57567496  0.70713566  0.86150037    -0.10800
C1237       C  0.54965402  0.70173155  0.86579702    -0.00800
C1238       C  0.53039065  0.71542988  0.85313183    -0.06000
H1239       H  0.56818031  0.75548535  0.81836197     0.06500
H1240       H  0.54430591  0.68672330  0.87901844     0.09900
Br1241     Br  0.50648541  0.77599063  0.87043425    -0.05700
Br1242     Br  0.49643521  0.75598253  0.74547351    -0.02600
Br1243     Br  0.61697871  0.73682747  0.83814298     0.00200
Br1244     Br  0.49539388  0.70622808  0.85933354    -0.04100
C1245       C  0.37906679  0.86734373  0.71892259    -0.11500
C1246       C  0.36432543  0.88679202  0.73063447     0.03900
C1247       C  0.34677436  0.90080666  0.71606754    -0.12100
C1248       C  0.34344245  0.89580896  0.68998445     0.18800
C1249       C  0.35812446  0.87664721  0.67824017    -0.09100
C1250       C  0.37567012  0.86261536  0.69267243    -0.02100
H1251       H  0.33542057  0.91553205  0.72518401     0.05300
C1252       C  0.32436720  0.91057663  0.67535105     0.20800
H1253       H  0.38673806  0.84789715  0.68321748     0.15300
C1254       C  0.33275814  0.92851083  0.65730686    -0.15500
C1255       C  0.31518502  0.94253598  0.64286269     0.03500
C1256       C  0.28871574  0.93884787  0.64661916    -0.10800
C1257       C  0.28035290  0.92075261  0.66454405    -0.00800
C1258       C  0.29795541  0.90666986  0.67890984    -0.06000
H1259       H  0.35306776  0.93139837  0.65429532     0.06500
H1260       H  0.26005520  0.91770551  0.66747581     0.09900
Br1261     Br  0.35424403  0.86839067  0.64272237    -0.05700
Br1262     Br  0.36590208  0.89450117  0.76648003    -0.02600
Br1263     Br  0.32831826  0.96536524  0.61730964     0.00200
Br1264     Br  0.28512628  0.88182105  0.70262373    -0.04100
C1265       C  0.65175871  0.64896538  0.86482086    -0.11500
C1266       C  0.67461566  0.65739040  0.85331333     0.03900
C1267       C  0.69055456  0.63980686  0.84072067    -0.12100
C1268       C  0.68397305  0.61380650  0.83955449     0.18800
C1269       C  0.66149860  0.60539873  0.85178927    -0.09100
C1270       C  0.64561853  0.62292524  0.86421326    -0.02100
H1271       H  0.70789072  0.64645450  0.83153040     0.05300
C1272       C  0.69987370  0.59571941  0.82458295     0.20800
H1273       H  0.62823448  0.61623406  0.87330457     0.10500
C1274       C  0.72201666  0.58510131  0.83536945    -0.15500
C1275       C  0.73624948  0.56641293  0.82231105     0.03500
C1276       C  0.72832929  0.55802303  0.79776725    -0.10800
C1277       C  0.70626175  0.56923130  0.78702236    -0.00800
C1278       C  0.69219435  0.58781595  0.80010935    -0.06000
H1279       H  0.72795285  0.59100428  0.85430115     0.06500
H1280       H  0.69974678  0.56354509  0.76822464     0.09900
Br1281     Br  0.65170006  0.57010368  0.85193037    -0.05700
Br1282     Br  0.68471996  0.69255358  0.85462827    -0.02600
Br1283     Br  0.76554350  0.55281628  0.83978686     0.00200
Br1284     Br  0.66240468  0.60187356  0.78386701    -0.04100
C1285       C  0.80134038  0.45298537  0.71023782    -0.11500
C1286       C  0.79070858  0.44380633  0.68698062     0.03900
C1287       C  0.80288438  0.42412405  0.67353191    -0.12100
C1288       C  0.82561297  0.41323108  0.68249605     0.18800
C1289       C  0.83676150  0.42277471  0.70500133    -0.09100
C1290       C  0.82463395  0.44234624  0.71867580    -0.02100
H1291       H  0.79442814  0.41707671  0.65599386     0.05300
C1292       C  0.83739092  0.39194132  0.66803755     0.20800
H1293       H  0.83344672  0.44907704  0.73614566     0.10500
C1294       C  0.85152316  0.39729493  0.64588959    -0.15500
C1295       C  0.86343241  0.37764523  0.63217578     0.03500
C1296       C  0.86122523  0.35216869  0.64052795    -0.10800
C1297       C  0.84639310  0.34670288  0.66221162    -0.00800
C1298       C  0.83445519  0.36637386  0.67593081    -0.06000
H1299       H  0.85352166  0.41685251  0.63942803     0.06500
H1300       H  0.84453850  0.32716115  0.66876384     0.09900
Br1301     Br  0.86869166  0.40974660  0.71756176    -0.05700
Br1302     Br  0.75980621  0.45681612  0.67185488    -0.02600
Br1303     Br  0.88238998  0.38631708  0.60200604     0.00200
Br1304     Br  0.81427816  0.35759647  0.70527993    -0.04100
C1305       C  0.73446581  0.44590765  0.79265843    -0.11500
C1306       C  0.71618632  0.42945830  0.78137382     0.03900
C1307       C  0.70463404  0.41036508  0.79608456    -0.12100
C1308       C  0.71133784  0.40687969  0.82174760     0.18800
C1309       C  0.73105030  0.42164441  0.83239421    -0.09100
C1310       C  0.74237680  0.44104419  0.81792291    -0.02100
H1311       H  0.68974938  0.39866094  0.78769203     0.05300
C1312       C  0.69514296  0.39037168  0.83783305     0.20800
H1313       H  0.75687601  0.45285780  0.82679475     0.10500
C1314       C  0.70012463  0.36411309  0.83965902    -0.15500
C1315       C  0.68356045  0.34813496  0.85339278     0.03500
C1316       C  0.66164733  0.35846098  0.86517185    -0.10800
C1317       C  0.65715834  0.38480338  0.86391763    -0.00800
C1318       C  0.67372768  0.40075639  0.85039289    -0.06000
H1319       H  0.71670087  0.35605681  0.83019919     0.06500
H1320       H  0.64036633  0.39287956  0.87299127     0.09900
Br1321     Br  0.74226343  0.41652857  0.86691337    -0.05700
Br1322     Br  0.70645675  0.43131067  0.74600922    -0.02600
Br1323     Br  0.69156283  0.31249617  0.85592800     0.00200
Br1324     Br  0.66602444  0.43657415  0.84882974    -0.04100
C1325       C  0.79885776  0.56229897  0.71514594    -0.11500
C1326       C  0.81917792  0.57715316  0.72517622     0.03900
C1327       C  0.83142220  0.59509701  0.70965097    -0.12100
C1328       C  0.82384346  0.59871343  0.68427285     0.18800
C1329       C  0.80332065  0.58454127  0.67437541    -0.09100
C1330       C  0.79093815  0.56660025  0.68979860    -0.02100
H1331       H  0.84715372  0.60617206  0.71733456     0.05300
C1332       C  0.83824365  0.61677075  0.66822674     0.20800
H1333       H  0.77540859  0.55557484  0.68167866     0.10500
C1334       C  0.85599434  0.60721153  0.65058542    -0.15500
C1335       C  0.87087532  0.62378007  0.63584634     0.03500
C1336       C  0.86810638  0.65040860  0.63883353    -0.10800
C1337       C  0.84993833  0.65989286  0.65618455    -0.00800
C1338       C  0.83509878  0.64328705  0.67089964    -0.06000
H1339       H  0.85834046  0.58676893  0.64839272     0.06500
H1340       H  0.84762011  0.68031146  0.65861301     0.09900
Br1341     Br  0.79167957  0.58911412  0.63990809    -0.05700
Br1342     Br  0.83109329  0.57471765  0.75984777    -0.02600
Br1343     Br  0.89384345  0.60901774  0.61131159     0.00200
Br1344     Br  0.81072251  0.65754062  0.69430458    -0.04100
loop_ 
_geom_bond_atom_site_label_1 
_geom_bond_atom_site_label_2 
_geom_bond_distance 
_geom_bond_site_symmetry_2 
_ccdc_geom_bond_type 
O1            V9   1.901       .  S
O1           C11   1.266       .  A
O2            V9   1.900       .  S
O2           C12   1.265       .  A
O3            V9   1.898       .  S
O3           C13   1.265       .  A
O4            V9   1.895       .  S
O4           C14   1.262       .  A
O5           V10   1.911       .  S
O5           C14   1.269       .  A
O6           V10   1.915       .  S
O6           C13   1.267       .  A
O7           V10   1.896       .  S
O7           C12   1.264       .  A
O8           V10   1.892       .  S
O8           C11   1.262       .  A
V9           V10   2.082       .  T
C11        C1325   1.482       .  S
C12        C1305   1.483       .  S
C13        C1276   1.498       .  S
C14        C1285   1.495       .  S
O15          V23   1.899       .  S
O15          C25   1.264       .  A
O16          V23   1.897       .  S
O16          C26   1.265       .  A
O17          V23   1.893       .  S
O17          C27   1.262       .  A
O18          V23   1.892       .  S
O18          C28   1.262       .  A
O19          V24   1.906       .  S
O19          C28   1.267       .  A
O20          V24   1.906       .  S
O20          C27   1.267       .  A
O21          V24   1.901       .  S
O21          C26   1.264       .  A
O22          V24   1.904       .  S
O22          C25   1.266       .  A
V23          V24   2.083       .  T
C25        C1225   1.488       .  S
C26        C1245   1.484       .  S
C27        C1205   1.485       .  S
C28        C1185   1.485       .  S
O29          V37   1.897       .  S
O29          C39   1.263       .  A
O30          V37   1.895       .  S
O30          C40   1.265       .  A
O31          V37   1.891       .  S
O31          C41   1.264       .  A
O32          V37   1.891       .  S
O32          C42   1.262       .  A
O33          V38   1.899       .  S
O33          C42   1.265       .  A
O34          V38   1.897       .  S
O34          C41   1.263       .  A
O35          V38   1.894       .  S
O35          C40   1.262       .  A
O36          V38   1.898       .  S
O36          C39   1.265       .  A
V37          V38   2.083       .  T
C39        C1125   1.487       .  S
C40        C1105   1.482       .  S
C41        C1165   1.481       .  S
C42        C1145   1.481       .  S
C43        C1096   1.482       .  S
C43          C44   1.406       .  A
C43          C48   1.396       .  A
C44          C45   1.417       .  A
C44          H49   1.079       .  S
C45          C56   1.509   1_565  S
C45          C46   1.413       .  A
C46          C47   1.400       .  A
C46          H50   1.079       .  S
C47        C1065   1.473       .  S
C47          C48   1.395       .  A
C48          H51   1.085       .  S
C52        C1025   1.479       .  S
C52          C53   1.396       .  A
C52          C57   1.404       .  A
C53          C54   1.398       .  A
C53          H58   1.084       .  S
C54        C1045   1.481       .  S
C54          C55   1.403       .  A
C55          C56   1.414       .  A
C55          H59   1.078       .  S
C56          C57   1.417       .  A
C57          H60   1.079       .  S
O61          V69   1.898       .  S
O61          C71   1.263       .  A
O62          V69   1.897       .  S
O62          C72   1.263       .  A
O63          V69   1.895       .  S
O63          C73   1.262       .  A
O64          V69   1.893       .  S
O64          C74   1.264       .  A
O65          V70   1.902       .  S
O65          C74   1.264       .  A
O66          V70   1.903       .  S
O66          C73   1.266       .  A
O67          V70   1.897       .  S
O67          C72   1.265       .  A
O68          V70   1.898       .  S
O68          C71   1.265       .  A
V69          V70   2.083       .  T
C71         C965   1.487       .  S
C72        C1016   1.486       .  S
C73         C996   1.486       .  S
C74        C1056   1.483       .  S
C75         C945   1.470       .  S
C75          C76   1.397       .  A
C75          C80   1.402       .  A
C76          C77   1.397       .  A
C76          H81   1.084       .  S
C77        C1116   1.474       .  S
C77          C78   1.400       .  A
C78          C79   1.410       .  A
C78          H82   1.080       .  S
C79          C88   1.503   1_565  S
C79          C80   1.413       .  A
C80          H83   1.079       .  S
C84        C1005   1.473       .  S
C84          C85   1.398       .  A
C84          C89   1.402       .  A
C85          C86   1.398       .  A
C85          H90   1.084       .  S
C86         C936   1.477       .  S
C86          C87   1.400       .  A
C87          C88   1.414       .  A
C87          H91   1.080       .  S
C88          C89   1.411       .  A
C89          H92   1.079       .  S
O93         V101   1.895       .  S
O93         C103   1.263       .  A
O94         V101   1.895       .  S
O94         C104   1.262       .  A
O95         V101   1.896       .  S
O95         C105   1.263       .  A
O96         V101   1.894       .  S
O96         C106   1.265       .  A
O97         V102   1.906       .  S
O97         C106   1.265       .  A
O98         V102   1.903       .  S
O98         C105   1.266       .  A
O99         V102   1.902       .  S
O99         C104   1.266       .  A
O100        V102   1.904       .  S
O100        C103   1.266       .  A
V101        V102   2.083       .  T
C103        C885   1.481       .  S
C104        C925   1.486       .  S
C105        C905   1.481       .  S
C106        C865   1.491       .  S
C107       C1156   1.475       .  S
C107        C108   1.400       .  A
C107        C112   1.400       .  A
C108        C109   1.399       .  A
C108        H113   1.084       .  S
C109       C1216   1.479       .  S
C109        C110   1.404       .  A
C110        C111   1.413       .  A
C110        H114   1.080       .  S
C111        C120   1.504   1_565  S
C111        C112   1.409       .  A
C112        H115   1.080       .  S
C116        C845   1.482       .  S
C116        C117   1.401       .  A
C116        C121   1.403       .  A
C117        C118   1.396       .  A
C117        H122   1.084       .  S
C118        C916   1.474       .  S
C118        C119   1.399       .  A
C119        C120   1.413       .  A
C119        H123   1.079       .  S
C120        C121   1.410       .  A
C121        H124   1.080       .  S
C125       C1256   1.476       .  S
C125        C126   1.399       .  A
C125        C130   1.396       .  A
C126        C127   1.411       .  A
C126        H131   1.079       .  S
C127        C138   1.502   1_565  S
C127        C128   1.413       .  A
C128        C129   1.405       .  A
C128        H132   1.081       .  S
C129        C825   1.476       .  S
C129        C130   1.399       .  A
C130        H133   1.084       .  S
C134        C785   1.470       .  S
C134        C135   1.397       .  A
C134        C139   1.401       .  A
C135        C136   1.401       .  A
C135        H140   1.084       .  S
C136        C805   1.485       .  S
C136        C137   1.403       .  A
C137        C138   1.412       .  A
C137        H141   1.080       .  S
C138        C139   1.410       .  A
C139        H142   1.081       .  S
O143        V151   1.898       .  S
O143        C153   1.263       .  A
O144        V151   1.897       .  S
O144        C154   1.264       .  A
O145        V151   1.905       .  S
O145        C155   1.266       .  A
O146        V151   1.904       .  S
O146        C156   1.265       .  A
O147        V152   1.886       .  S
O147        C156   1.263       .  A
O148        V152   1.886       .  S
O148        C155   1.261       .  A
O149        V152   1.892       .  S
O149        C154   1.262       .  A
O150        V152   1.894       .  S
O150        C153   1.265       .  A
V151        V152   2.084       .  T
C153        C856   1.483       .  S
C154        C776   1.473       .  S
C155        C816   1.477       .  S
C156        C745   1.485       .  S
O157        V165   1.901       .  S
O157        C167   1.264       .  A
O158        V165   1.898       .  S
O158        C168   1.265       .  A
O159        V165   1.898       .  S
O159        C169   1.265       .  A
O160        V165   1.897       .  S
O160        C170   1.263       .  A
O161        V166   1.903       .  S
O161        C170   1.266       .  A
O162        V166   1.902       .  S
O162        C169   1.264       .  A
O163        V166   1.897       .  S
O163        C168   1.263       .  A
O164        V166   1.899       .  S
O164        C167   1.265       .  A
V165        V166   2.084       .  T
C167        C725   1.487       .  S
C168        C796   1.480       .  S
C169        C716   1.490       .  S
C170       C1036   1.484       .  S
C171       C1316   1.474       .  S
C171        C172   1.400       .  A
C171        C176   1.403       .  A
C172        C173   1.400       .  A
C172        H177   1.084       .  S
C173        C756   1.479       .  S
C173        C174   1.400       .  A
C174        C175   1.407       .  A
C174        H178   1.080       .  S
C175        C184   1.499       .  S
C175        C176   1.412       .  A
C176        H179   1.081       .  S
C180        C985   1.480       .  S
C180        C181   1.398       .  A
C180        C185   1.402       .  A
C181        C182   1.396       .  A
C181        H186   1.084   1_556  S
C182        C685   1.468   1_556  S
C182        C183   1.400       .  A
C183        C184   1.409       .  A
C183        H187   1.081       .  S
C184        C185   1.414       .  A
C185        H188   1.081       .  S
O189        V197   1.907       .  S
O189        C199   1.266       .  A
O190        V197   1.909       .  S
O190        C200   1.268       .  A
O191        V197   1.900       .  S
O191        C201   1.264       .  A
O192        V197   1.897       .  S
O192        C202   1.264       .  A
O193        V198   1.895       .  S
O193        C202   1.262       .  A
O194        V198   1.897       .  S
O194        C201   1.264       .  A
O195        V198   1.900       .  S
O195        C200   1.263       .  A
O196        V198   1.902       .  S
O196        C199   1.266       .  A
V197        V198   2.083       .  T
C199        C645   1.497       .  S
C200        C676   1.496       .  S
C201        C636   1.479       .  S
C202        C696   1.478       .  S
C203       C1265   1.479       .  S
C203        C204   1.401       .  A
C203        C208   1.402       .  A
C204        C205   1.403       .  A
C204        H209   1.084       .  S
C205       C1236   1.488       .  S
C205        C206   1.405       .  A
C206        C207   1.416       .  A
C206        H210   1.079       .  S
C207        C216   1.511       .  S
C207        C208   1.414       .  A
C208        H211   1.079       .  S
C212        C605   1.490       .  S
C212        C213   1.402   1_556  A
C212        C217   1.405       .  A
C213        C214   1.399   1_554  A
C213        H218   1.084       .  S
C214        C665   1.484   1_556  S
C214        C215   1.404       .  A
C215        C216   1.416       .  A
C215        H219   1.079       .  S
C216        C217   1.414       .  A
C217        H220   1.079       .  S
C221       C1196   1.477       .  S
C221        C222   1.397       .  A
C221        C226   1.402       .  A
C222        C223   1.397       .  A
C222        H227   1.084       .  S
C223        C596   1.474       .  S
C223        C224   1.402       .  A
C224        C225   1.412       .  A
C224        H228   1.080       .  S
C225        C232   1.509       .  S
C225        C226   1.415       .  A
C226        H229   1.078       .  S
C230        C545   1.476   1_556  S
C230        C231   1.404       .  A
C230        C235   1.396   1_556  A
C231        C232   1.416       .  A
C231        H236   1.080       .  S
C232        C233   1.413       .  A
C233        C234   1.397       .  A
C233        H237   1.078       .  S
C234        C565   1.466   1_556  S
C234        C235   1.392   1_556  A
C235        H238   1.084       .  S
O239        V247   1.895       .  S
O239        C249   1.264       .  A
O240        V247   1.898       .  S
O240        C250   1.265       .  A
O241        V247   1.900       .  S
O241        C251   1.265       .  A
O242        V247   1.899       .  S
O242        C252   1.266       .  A
O243        V248   1.900       .  S
O243        C252   1.263       .  A
O244        V248   1.899       .  S
O244        C251   1.264       .  A
O245        V248   1.897       .  S
O245        C250   1.263       .  A
O246        V248   1.892       .  S
O246        C249   1.262       .  A
V247        V248   2.085       .  T
C249        C576   1.471       .  S
C250        C956   1.483       .  S
C251        C616   1.481       .  S
C252       C1085   1.489       .  S
C253        C765   1.469       .  S
C253        C254   1.397       .  A
C253        C258   1.397       .  A
C254        C255   1.406       .  A
C254        H259   1.080       .  S
C255        C266   1.497       .  S
C255        C256   1.412       .  A
C256        C257   1.403       .  A
C256        H260   1.080       .  S
C257        C536   1.477       .  S
C257        C258   1.400       .  A
C258        H261   1.084       .  S
C262        C516   1.466   1_556  S
C262        C263   1.397   1_556  A
C262        C267   1.397       .  A
C263        C264   1.399   1_554  A
C263        H268   1.084       .  S
C264        C976   1.481   1_556  S
C264        C265   1.403       .  A
C265        C266   1.412       .  A
C265        H269   1.081       .  S
C266        C267   1.406       .  A
C267        H270   1.080       .  S
C271       C1296   1.480       .  S
C271        C272   1.399       .  A
C271        C276   1.400       .  A
C272        C273   1.405       .  A
C272        H277   1.084       .  S
C273        C896   1.483       .  S
C273        C274   1.406       .  A
C274        C275   1.410       .  A
C274        H278   1.081       .  S
C275        C284   1.505       .  S
C275        C276   1.413       .  A
C276        H279   1.080       .  S
C280        C705   1.484   1_655  S
C280        C281   1.399       .  A
C280        C285   1.408       .  A
C281        C282   1.399       .  A
C281        H286   1.084   1_655  S
C282        C485   1.477       .  S
C282        C283   1.399       .  A
C283        C284   1.409       .  A
C283        H287   1.081       .  S
C284        C285   1.415       .  A
C285        H288   1.080       .  S
O289        V297   1.896       .  S
O289        C299   1.264       .  A
O290        V297   1.898       .  S
O290        C300   1.265       .  A
O291        V297   1.896       .  S
O291        C301   1.264       .  A
O292        V297   1.895       .  S
O292        C302   1.265       .  A
O293        V298   1.901       .  S
O293        C302   1.264       .  A
O294        V298   1.899       .  S
O294        C301   1.264       .  A
O295        V298   1.894       .  S
O295        C300   1.262       .  A
O296        V298   1.893       .  S
O296        C299   1.263       .  A
V297        V298   2.084       .  T
C299        C496   1.475       .  S
C300        C585   1.483       .  S
C301        C525   1.477       .  S
C302        C476   1.488       .  S
C303       C1336   1.477       .  S
C303        C304   1.397       .  A
C303        C308   1.400       .  A
C304        C305   1.400       .  A
C304        H309   1.084       .  S
C305       C1136   1.482       .  S
C305        C306   1.404       .  A
C306        C307   1.413       .  A
C306        H310   1.080       .  S
C307        C316   1.503       .  S
C307        C308   1.411       .  A
C308        H311   1.079       .  S
C312        C445   1.474   1_655  S
C312        C313   1.397   1_655  A
C312        C317   1.401       .  A
C313        C314   1.398   1_455  A
C313        H318   1.084       .  S
C314        C465   1.477   1_655  S
C314        C315   1.402       .  A
C315        C316   1.413       .  A
C315        H319   1.080       .  S
C316        C317   1.411       .  A
C317        H320   1.080       .  S
O321        V329   1.902       .  S
O321        C331   1.264       .  A
O322        V329   1.903       .  S
O322        C332   1.265       .  A
O323        V329   1.900       .  S
O323        C333   1.265       .  A
O324        V329   1.899       .  S
O324        C334   1.265       .  A
O325        V330   1.890       .  S
O325        C334   1.261       .  A
O326        V330   1.891       .  S
O326        C333   1.262       .  A
O327        V330   1.896       .  S
O327        C332   1.265       .  A
O328        V330   1.896       .  S
O328        C331   1.265       .  A
V329        V330   2.085       .  T
C331        C425   1.485       .  S
C332        C836   1.484       .  S
C333        C456   1.481       .  S
C334       C1076   1.474       .  S
C335       C1176   1.474       .  S
C335        C336   1.400       .  A
C335        C340   1.396       .  A
C336        C337   1.411       .  A
C336        H341   1.079       .  S
C337        C346   1.511       .  S
C337        C338   1.419       .  A
C338        C339   1.405       .  A
C338        H342   1.078       .  S
C339        C625   1.480       .  S
C339        C340   1.397       .  A
C340        H343   1.084       .  S
C344        C416   1.471   1_655  S
C344        C345   1.401       .  A
C344        C349   1.394   1_655  A
C345        C346   1.412       .  A
C345        H350   1.078       .  S
C346        C347   1.419       .  A
C347        C348   1.404       .  A
C347        H351   1.079       .  S
C348        C436   1.476   1_655  S
C348        C349   1.393   1_655  A
C349        H352   1.085       .  S
C353        C876   1.486       .  S
C353        C354   1.401       .  A
C353        C358   1.405       .  A
C354        C355   1.406       .  A
C354        H359   1.079       .  S
C355        C364   1.502       .  S
C355        C356   1.413       .  A
C356        C357   1.407       .  A
C356        H360   1.087       .  S
C357        C656   1.491       .  S
C357        C358   1.406       .  A
C358        H361   1.083       .  S
C362        C385   1.468       .  S
C362        C363   1.399       .  A
C362        C367   1.397       .  A
C363        C364   1.408       .  A
C363        H368   1.089       .  S
C364        C365   1.417       .  A
C365        C366   1.404       .  A
C365        H369   1.078       .  S
C366        C736   1.480   1_655  S
C366        C367   1.397       .  A
C367        H370   1.084   1_655  S
O371        V379   1.900       .  S
O371        C381   1.264       .  A
O372        V379   1.901       .  S
O372        C382   1.266       .  A
O373        V379   1.890       .  S
O373        C383   1.262       .  A
O374        V379   1.885       .  S
O374        C384   1.263       .  A
O375        V380   1.897       .  S
O375        C384   1.263       .  A
O376        V380   1.898       .  S
O376        C383   1.264       .  A
O377        V380   1.891       .  S
O377        C382   1.261       .  A
O378        V380   1.890       .  S
O378        C381   1.263       .  A
V379        V380   2.084       .  T
C381        C396   1.483       .  S
C382        C556   1.484       .  S
C383        C405   1.475       .  S
C384        C505   1.479       .  S
C385        C386   1.407       .  A
C385        C390   1.403   1_655  A
C386        C387   1.393   1_655  A
C386       Br402   1.920       .  S
C387        C388   1.400       .  A
C387        H391   1.084       .  S
C388        C392   1.468       .  S
C388        C389   1.406       .  A
C389        C390   1.399       .  A
C389       Br401   1.917       .  S
C390        H393   1.084       .  S
C392        C394   1.399       .  A
C392        C398   1.401       .  A
C394        C395   1.398       .  A
C394        H399   1.084       .  S
C395        C396   1.418       .  A
C395       Br403   1.922       .  S
C396        C397   1.409       .  A
C397        C398   1.394       .  A
C397        H400   1.083       .  S
C398       Br404   1.919   1_455  S
C405        C406   1.413       .  A
C405        C410   1.406       .  A
C406        C407   1.396       .  A
C406       Br422   1.921       .  S
C407        C408   1.401       .  A
C407        H411   1.084       .  S
C408        C412   1.471       .  S
C408        C409   1.406       .  A
C409        C410   1.395       .  A
C409       Br421   1.920       .  S
C410        H413   1.083       .  S
C412        C414   1.401       .  A
C412        C418   1.408       .  A
C414        C415   1.395       .  A
C414        H419   1.084       .  S
C415        C416   1.409       .  A
C415       Br423   1.921   1_455  S
C416        C417   1.402       .  A
C417        C418   1.396       .  A
C417        H420   1.084       .  S
C418       Br424   1.919       .  S
C425        C426   1.416       .  A
C425        C430   1.408       .  A
C426        C427   1.401       .  A
C426       Br442   1.921       .  S
C427        C428   1.401       .  A
C427        H431   1.084       .  S
C428        C432   1.476       .  S
C428        C429   1.404       .  A
C429        C430   1.396       .  A
C429       Br441   1.919       .  S
C430        H433   1.083       .  S
C432        C434   1.403       .  A
C432        C438   1.407       .  A
C434        C435   1.399       .  A
C434        H439   1.084       .  S
C435        C436   1.408       .  A
C435       Br443   1.919   1_455  S
C436        C437   1.404       .  A
C437        C438   1.398       .  A
C437        H440   1.084       .  S
C438       Br444   1.919       .  S
C445        C446   1.409       .  A
C445        C450   1.403       .  A
C446        C447   1.397       .  A
C446       Br462   1.919   1_455  S
C447        C448   1.402       .  A
C447        H451   1.084       .  S
C448        C452   1.473       .  S
C448        C449   1.407       .  A
C449        C450   1.396       .  A
C449       Br461   1.919       .  S
C450        H453   1.084       .  S
C452        C454   1.399       .  A
C452        C458   1.405       .  A
C454        C455   1.397       .  A
C454        H459   1.084       .  S
C455        C456   1.417       .  A
C455       Br463   1.923       .  S
C456        C457   1.407       .  A
C457        C458   1.397       .  A
C457        H460   1.083       .  S
C458       Br464   1.919       .  S
C465        C466   1.410       .  A
C465        C470   1.404   1_455  A
C466        C467   1.400       .  A
C466       Br482   1.919       .  S
C467        C468   1.402       .  A
C467        H471   1.083       .  S
C468        C472   1.473       .  S
C468        C469   1.405       .  A
C469        C470   1.396   1_455  A
C469       Br481   1.919   1_455  S
C470        H473   1.084       .  S
C472        C474   1.399       .  A
C472        C478   1.403       .  A
C474        C475   1.400       .  A
C474        H479   1.084       .  S
C475        C476   1.419       .  A
C475       Br483   1.921       .  S
C476        C477   1.409       .  A
C477        C478   1.396       .  A
C477        H480   1.083       .  S
C478       Br484   1.919       .  S
C485        C486   1.409   1_655  A
C485        C490   1.405       .  A
C486        C487   1.398       .  A
C486       Br502   1.919       .  S
C487        C488   1.402       .  A
C487        H491   1.083       .  S
C488        C492   1.471       .  S
C488        C489   1.405   1_455  A
C489        C490   1.394       .  A
C489       Br501   1.919       .  S
C490        H493   1.084       .  S
C492        C494   1.401       .  A
C492        C498   1.404       .  A
C494        C495   1.396       .  A
C494        H499   1.084       .  S
C495        C496   1.413       .  A
C495       Br503   1.921       .  S
C496        C497   1.407       .  A
C497        C498   1.397       .  A
C497        H500   1.083       .  S
C498       Br504   1.918       .  S
C505        C506   1.418       .  A
C505        C510   1.408       .  A
C506        C507   1.398       .  A
C506       Br522   1.922       .  S
C507        C508   1.399       .  A
C507        H511   1.084       .  S
C508        C512   1.464       .  S
C508        C509   1.401       .  A
C509        C510   1.390       .  A
C509       Br521   1.920       .  S
C510        H513   1.083       .  S
C512        C514   1.400       .  A
C512        C518   1.405       .  A
C514        C515   1.394       .  A
C514        H519   1.084       .  S
C515        C516   1.408       .  A
C515       Br523   1.920   1_554  S
C516        C517   1.402       .  A
C517        C518   1.395       .  A
C517        H520   1.084       .  S
C518       Br524   1.918       .  S
C525        C526   1.413       .  A
C525        C530   1.405       .  A
C526        C527   1.400       .  A
C526       Br542   1.921       .  S
C527        C528   1.401       .  A
C527        H531   1.083       .  S
C528        C532   1.474       .  S
C528        C529   1.406       .  A
C529        C530   1.396       .  A
C529       Br541   1.920       .  S
C530        H533   1.083       .  S
C532        C534   1.402       .  A
C532        C538   1.407       .  A
C534        C535   1.400       .  A
C534        H539   1.083       .  S
C535        C536   1.410       .  A
C535       Br543   1.919       .  S
C536        C537   1.404       .  A
C537        C538   1.395       .  A
C537        H540   1.084       .  S
C538       Br544   1.920       .  S
C545        C546   1.410       .  A
C545        C550   1.404   1_554  A
C546        C547   1.397       .  A
C546       Br562   1.919       .  S
C547        C548   1.401       .  A
C547        H551   1.084       .  S
C548        C552   1.473       .  S
C548        C549   1.407       .  A
C549        C550   1.397   1_554  A
C549       Br561   1.919       .  S
C550        H553   1.084       .  S
C552        C554   1.398       .  A
C552        C558   1.404       .  A
C554        C555   1.397       .  A
C554        H559   1.084       .  S
C555        C556   1.419       .  A
C555       Br563   1.923       .  S
C556        C557   1.408       .  A
C557        C558   1.397       .  A
C557        H560   1.083       .  S
C558       Br564   1.919       .  S
C565        C566   1.407       .  A
C565        C570   1.400       .  A
C566        C567   1.396       .  A
C566       Br582   1.919       .  S
C567        C568   1.400       .  A
C567        H571   1.084       .  S
C568        C572   1.467       .  S
C568        C569   1.407       .  A
C569        C570   1.396       .  A
C569       Br581   1.918       .  S
C570        H573   1.084       .  S
C572        C574   1.399       .  A
C572        C578   1.404       .  A
C574        C575   1.397       .  A
C574        H579   1.084       .  S
C575        C576   1.412       .  A
C575       Br583   1.921       .  S
C576        C577   1.404       .  A
C577        C578   1.395       .  A
C577        H580   1.084       .  S
C578       Br584   1.919   1_554  S
C585        C586   1.417       .  A
C585        C590   1.408       .  A
C586        C587   1.397       .  A
C586       Br602   1.922       .  S
C587        C588   1.400       .  A
C587        H591   1.084       .  S
C588        C592   1.475       .  S
C588        C589   1.405       .  A
C589        C590   1.397       .  A
C589       Br601   1.919       .  S
C590        H593   1.083       .  S
C592        C594   1.402       .  A
C592        C598   1.408       .  A
C594        C595   1.397       .  A
C594        H599   1.084       .  S
C595        C596   1.409       .  A
C595       Br603   1.919       .  S
C596        C597   1.402       .  A
C597        C598   1.397       .  A
C597        H600   1.084       .  S
C598       Br604   1.919       .  S
C605        C606   1.417       .  A
C605        C610   1.407   1_556  A
C606        C607   1.400   1_556  A
C606       Br622   1.922       .  S
C607        C608   1.400       .  A
C607        H611   1.084   1_554  S
C608        C612   1.476       .  S
C608        C609   1.405       .  A
C609        C610   1.399       .  A
C609       Br621   1.918       .  S
C610        H613   1.083       .  S
C612        C614   1.400       .  A
C612        C618   1.406       .  A
C614        C615   1.399       .  A
C614        H619   1.084       .  S
C615        C616   1.415       .  A
C615       Br623   1.921       .  S
C616        C617   1.407       .  A
C617        C618   1.399       .  A
C617        H620   1.083       .  S
C618       Br624   1.918       .  S
C625        C626   1.410       .  A
C625        C630   1.403       .  A
C626        C627   1.398       .  A
C626       Br642   1.920       .  S
C627        C628   1.402       .  A
C627        H631   1.084       .  S
C628        C632   1.481       .  S
C628        C629   1.410       .  A
C629        C630   1.400       .  A
C629       Br641   1.919       .  S
C630        H633   1.083       .  S
C632        C634   1.403       .  A
C632        C638   1.408       .  A
C634        C635   1.400       .  A
C634        H639   1.084       .  S
C635        C636   1.413       .  A
C635       Br643   1.921       .  S
C636        C637   1.405       .  A
C637        C638   1.398       .  A
C637        H640   1.083       .  S
C638       Br644   1.919       .  S
C645        C646   1.420       .  A
C645        C650   1.411       .  A
C646        C647   1.404       .  A
C646       Br662   1.921       .  S
C647        C648   1.401       .  A
C647        H651   1.084       .  S
C648        C652   1.483       .  S
C648        C649   1.404       .  A
C649        C650   1.401       .  A
C649       Br661   1.918       .  S
C650        H653   1.083       .  S
C652        C654   1.402       .  A
C652        C658   1.407       .  A
C654        C655   1.402       .  A
C654        H659   1.084       .  S
C655        C656   1.414       .  A
C655       Br663   1.920       .  S
C656        C657   1.407       .  A
C657        C658   1.402       .  A
C657        H660   1.084       .  S
C658       Br664   1.918       .  S
C665        C666   1.412       .  A
C665        C670   1.404   1_554  A
C666        C667   1.400       .  A
C666       Br682   1.920       .  S
C667        C668   1.401       .  A
C667        H671   1.083       .  S
C668        C672   1.480       .  S
C668        C669   1.408       .  A
C669        C670   1.401   1_554  A
C669       Br681   1.917       .  S
C670        H673   1.083       .  S
C672        C674   1.399       .  A
C672        C678   1.405       .  A
C674        C675   1.401       .  A
C674        H679   1.084       .  S
C675        C676   1.422       .  A
C675       Br683   1.922       .  S
C676        C677   1.411       .  A
C677        C678   1.402       .  A
C677        H680   1.083       .  S
C678       Br684   1.918       .  S
C685        C686   1.407       .  A
C685        C690   1.401       .  A
C686        C687   1.398       .  A
C686       Br702   1.918   1_554  S
C687        C688   1.403       .  A
C687        H691   1.083       .  S
C688        C692   1.470       .  S
C688        C689   1.406       .  A
C689        C690   1.393       .  A
C689       Br701   1.919       .  S
C690        H693   1.084       .  S
C692        C694   1.399       .  A
C692        C698   1.404       .  A
C694        C695   1.397       .  A
C694        H699   1.084       .  S
C695        C696   1.415       .  A
C695       Br703   1.921       .  S
C696        C697   1.407       .  A
C697        C698   1.396       .  A
C697        H700   1.083       .  S
C698       Br704   1.919   1_554  S
C705        C706   1.412       .  A
C705        C710   1.407       .  A
C706        C707   1.399       .  A
C706       Br722   1.920   1_455  S
C707        C708   1.402       .  A
C707        H711   1.084       .  S
C708        C712   1.478       .  S
C708        C709   1.407       .  A
C709        C710   1.400       .  A
C709       Br721   1.919       .  S
C710        H713   1.084       .  S
C712        C714   1.401       .  A
C712        C718   1.405       .  A
C714        C715   1.402       .  A
C714        H719   1.084       .  S
C715        C716   1.419       .  A
C715       Br723   1.921       .  S
C716        C717   1.409       .  A
C717        C718   1.397       .  A
C717        H720   1.083       .  S
C718       Br724   1.920       .  S
C725        C726   1.417       .  A
C725        C730   1.408       .  A
C726        C727   1.400       .  A
C726       Br742   1.921       .  S
C727        C728   1.401       .  A
C727        H731   1.084       .  S
C728        C732   1.479       .  S
C728        C729   1.406       .  A
C729        C730   1.398       .  A
C729       Br741   1.919       .  S
C730        H733   1.083       .  S
C732        C734   1.404       .  A
C732        C738   1.408       .  A
C734        C735   1.401   1_455  A
C734        H739   1.083       .  S
C735        C736   1.410   1_655  A
C735       Br743   1.919       .  S
C736        C737   1.403       .  A
C737        C738   1.398       .  A
C737        H740   1.083       .  S
C738       Br744   1.919       .  S
C745        C746   1.418       .  A
C745        C750   1.410       .  A
C746        C747   1.400       .  A
C746       Br762   1.921       .  S
C747        C748   1.400       .  A
C747        H751   1.084       .  S
C748        C752   1.469       .  S
C748        C749   1.400       .  A
C749        C750   1.393       .  A
C749       Br761   1.919       .  S
C750        H753   1.083       .  S
C752        C754   1.400       .  A
C752        C758   1.404       .  A
C754        C755   1.398       .  A
C754        H759   1.084       .  S
C755        C756   1.412       .  A
C755       Br763   1.919       .  S
C756        C757   1.406       .  A
C757        C758   1.395       .  A
C757        H760   1.084       .  S
C758       Br764   1.919       .  S
C765        C766   1.408       .  A
C765        C770   1.402       .  A
C766        C767   1.393       .  A
C766       Br782   1.920       .  S
C767        C768   1.400       .  A
C767        H771   1.084       .  S
C768        C772   1.470       .  S
C768        C769   1.408       .  A
C769        C770   1.398       .  A
C769       Br781   1.918       .  S
C770        H773   1.083       .  S
C772        C774   1.400       .  A
C772        C778   1.406       .  A
C774        C775   1.395       .  A
C774        H779   1.084       .  S
C775        C776   1.413       .  A
C775       Br783   1.921       .  S
C776        C777   1.405       .  A
C777        C778   1.397       .  A
C777        H780   1.083       .  S
C778       Br784   1.919       .  S
C785        C786   1.406       .  A
C785        C790   1.402       .  A
C786        C787   1.395       .  A
C786       Br802   1.919       .  S
C787        C788   1.400       .  A
C787        H791   1.084       .  S
C788        C792   1.472       .  S
C788        C789   1.407       .  A
C789        C790   1.400       .  A
C789       Br801   1.917       .  S
C790        H793   1.083       .  S
C792        C794   1.399       .  A
C792        C798   1.404       .  A
C794        C795   1.399       .  A
C794        H799   1.084       .  S
C795        C796   1.416       .  A
C795       Br803   1.921       .  S
C796        C797   1.406       .  A
C797        C798   1.396       .  A
C797        H800   1.083       .  S
C798       Br804   1.919       .  S
C805        C806   1.416       .  A
C805        C810   1.407       .  A
C806        C807   1.395       .  A
C806       Br822   1.922       .  S
C807        C808   1.397       .  A
C807        H811   1.084       .  S
C808        C812   1.471       .  S
C808        C809   1.405       .  A
C809        C810   1.399       .  A
C809       Br821   1.918       .  S
C810        H813   1.083       .  S
C812        C814   1.398       .  A
C812        C818   1.405       .  A
C814        C815   1.394       .  A
C814        H819   1.084       .  S
C815        C816   1.415       .  A
C815       Br823   1.923       .  S
C816        C817   1.407       .  A
C817        C818   1.400       .  A
C817        H820   1.083       .  S
C818       Br824   1.917       .  S
C825        C826   1.410       .  A
C825        C830   1.403       .  A
C826        C827   1.398       .  A
C826       Br842   1.920       .  S
C827        C828   1.402       .  A
C827        H831   1.084       .  S
C828        C832   1.478       .  S
C828        C829   1.408       .  A
C829        C830   1.399       .  A
C829       Br841   1.918       .  S
C830        H833   1.083       .  S
C832        C834   1.402       .  A
C832        C838   1.404       .  A
C834        C835   1.401       .  A
C834        H839   1.084       .  S
C835        C836   1.416       .  A
C835       Br843   1.921       .  S
C836        C837   1.408       .  A
C837        C838   1.397       .  A
C837        H840   1.083       .  S
C838       Br844   1.919       .  S
C845        C846   1.416       .  A
C845        C850   1.405       .  A
C846        C847   1.397       .  A
C846       Br862   1.923       .  S
C847        C848   1.399       .  A
C847        H851   1.084       .  S
C848        C852   1.470       .  S
C848        C849   1.405       .  A
C849        C850   1.396       .  A
C849       Br861   1.918       .  S
C850        H853   1.083       .  S
C852        C854   1.398       .  A
C852        C858   1.403       .  A
C854        C855   1.399       .  A
C854        H859   1.084       .  S
C855        C856   1.418       .  A
C855       Br863   1.921       .  S
C856        C857   1.408       .  A
C857        C858   1.395       .  A
C857        H860   1.083       .  S
C858       Br864   1.919       .  S
C865        C866   1.420       .  A
C865        C870   1.408       .  A
C866        C867   1.404       .  A
C866       Br882   1.921       .  S
C867        C868   1.402       .  A
C867        H871   1.084       .  S
C868        C872   1.478       .  S
C868        C869   1.404       .  A
C869        C870   1.394       .  A
C869       Br881   1.920       .  S
C870        H873   1.083       .  S
C872        C874   1.404       .  A
C872        C878   1.406       .  A
C874        C875   1.402       .  A
C874        H879   1.084       .  S
C875        C876   1.412       .  A
C875       Br883   1.919       .  S
C876        C877   1.407       .  A
C877        C878   1.396       .  A
C877        H880   1.084       .  S
C878       Br884   1.919       .  S
C885        C886   1.414       .  A
C885        C890   1.406       .  A
C886        C887   1.398       .  A
C886       Br902   1.922       .  S
C887        C888   1.401       .  A
C887        H891   1.084       .  S
C888        C892   1.479       .  S
C888        C889   1.407       .  A
C889        C890   1.400       .  A
C889       Br901   1.918       .  S
C890        H893   1.083       .  S
C892        C894   1.403       .  A
C892        C898   1.407       .  A
C894        C895   1.399       .  A
C894        H899   1.084       .  S
C895        C896   1.410       .  A
C895       Br903   1.919       .  S
C896        C897   1.406       .  A
C897        C898   1.399       .  A
C897        H900   1.084       .  S
C898       Br904   1.919       .  S
C905        C906   1.416       .  A
C905        C910   1.406       .  A
C906        C907   1.401       .  A
C906       Br922   1.921       .  S
C907        C908   1.400       .  A
C907        H911   1.084       .  S
C908        C912   1.476       .  S
C908        C909   1.406       .  A
C909        C910   1.397       .  A
C909       Br921   1.919       .  S
C910        H913   1.083       .  S
C912        C914   1.403       .  A
C912        C918   1.408       .  A
C914        C915   1.400       .  A
C914        H919   1.083       .  S
C915        C916   1.407       .  A
C915       Br923   1.918       .  S
C916        C917   1.402       .  A
C917        C918   1.397       .  A
C917        H920   1.084       .  S
C918       Br924   1.919       .  S
C925        C926   1.418       .  A
C925        C930   1.409       .  A
C926        C927   1.398       .  A
C926       Br942   1.922       .  S
C927        C928   1.398       .  A
C927        H931   1.084       .  S
C928        C932   1.475       .  S
C928        C929   1.405       .  A
C929        C930   1.399       .  A
C929       Br941   1.919       .  S
C930        H933   1.083       .  S
C932        C934   1.401       .  A
C932        C938   1.407       .  A
C934        C935   1.397       .  A
C934        H939   1.084       .  S
C935        C936   1.409       .  A
C935       Br943   1.920       .  S
C936        C937   1.404       .  A
C937        C938   1.399       .  A
C937        H940   1.083       .  S
C938       Br944   1.918       .  S
C945        C946   1.407       .  A
C945        C950   1.400       .  A
C946        C947   1.399       .  A
C946       Br962   1.918       .  S
C947        C948   1.402       .  A
C947        H951   1.083       .  S
C948        C952   1.473       .  S
C948        C949   1.408       .  A
C949        C950   1.397       .  A
C949       Br961   1.918       .  S
C950        H953   1.084       .  S
C952        C954   1.399       .  A
C952        C958   1.404       .  A
C954        C955   1.398       .  A
C954        H959   1.084       .  S
C955        C956   1.417       .  A
C955       Br963   1.922       .  S
C956        C957   1.408       .  A
C957        C958   1.397       .  A
C957        H960   1.083       .  S
C958       Br964   1.919       .  S
C965        C966   1.419       .  A
C965        C970   1.409       .  A
C966        C967   1.399       .  A
C966       Br982   1.922       .  S
C967        C968   1.399       .  A
C967        H971   1.084       .  S
C968        C972   1.472       .  S
C968        C969   1.403       .  A
C969        C970   1.397       .  A
C969       Br981   1.919       .  S
C970        H973   1.083       .  S
C972        C974   1.398       .  A
C972        C978   1.406       .  A
C974        C975   1.395   1_554  A
C974        H979   1.084       .  S
C975        C976   1.414   1_556  A
C975       Br983   1.922       .  S
C976        C977   1.406       .  A
C977        C978   1.400       .  A
C977        H980   1.083       .  S
C978       Br984   1.917       .  S
C985        C986   1.411   1_556  A
C985        C990   1.405       .  A
C986        C987   1.399       .  A
C986      Br1002   1.920       .  S
C987        C988   1.401       .  A
C987        H991   1.084       .  S
C988        C992   1.474       .  S
C988        C989   1.406   1_554  A
C989        C990   1.397       .  A
C989      Br1001   1.918       .  S
C990        H993   1.084       .  S
C992        C994   1.398       .  A
C992        C998   1.403       .  A
C994        C995   1.398       .  A
C994        H999   1.084       .  S
C995        C996   1.419       .  A
C995      Br1003   1.923       .  S
C996        C997   1.409       .  A
C997        C998   1.399       .  A
C997       H1000   1.083       .  S
C998      Br1004   1.918       .  S
C1005      C1006   1.410       .  A
C1005      C1010   1.403       .  A
C1006      C1007   1.396       .  A
C1006     Br1022   1.921       .  S
C1007      C1008   1.401       .  A
C1007      H1011   1.084       .  S
C1008      C1012   1.472       .  S
C1008      C1009   1.406       .  A
C1009      C1010   1.399       .  A
C1009     Br1021   1.917       .  S
C1010      H1013   1.083       .  S
C1012      C1014   1.399       .  A
C1012      C1018   1.403       .  A
C1014      C1015   1.399       .  A
C1014      H1019   1.084       .  S
C1015      C1016   1.419       .  A
C1015     Br1023   1.922       .  S
C1016      C1017   1.409       .  A
C1017      C1018   1.397       .  A
C1017      H1020   1.083       .  S
C1018     Br1024   1.919       .  S
C1025      C1026   1.409       .  A
C1025      C1030   1.404       .  A
C1026      C1027   1.401       .  A
C1026     Br1042   1.918       .  S
C1027      C1028   1.403       .  A
C1027      H1031   1.083       .  S
C1028      C1032   1.477       .  S
C1028      C1029   1.407       .  A
C1029      C1030   1.397       .  A
C1029     Br1041   1.919       .  S
C1030      H1033   1.084       .  S
C1032      C1034   1.399       .  A
C1032      C1038   1.407       .  A
C1034      C1035   1.399       .  A
C1034      H1039   1.084       .  S
C1035      C1036   1.417       .  A
C1035     Br1043   1.922       .  S
C1036      C1037   1.407       .  A
C1037      C1038   1.400       .  A
C1037      H1040   1.083       .  S
C1038     Br1044   1.919       .  S
C1045      C1046   1.412       .  A
C1045      C1050   1.405       .  A
C1046      C1047   1.399       .  A
C1046     Br1062   1.920       .  S
C1047      C1048   1.402       .  A
C1047      H1051   1.083       .  S
C1048      C1052   1.473       .  S
C1048      C1049   1.405       .  A
C1049      C1050   1.396       .  A
C1049     Br1061   1.919       .  S
C1050      H1053   1.084       .  S
C1052      C1054   1.401       .  A
C1052      C1058   1.403       .  A
C1054      C1055   1.399       .  A
C1054      H1059   1.084       .  S
C1055      C1056   1.416       .  A
C1055     Br1063   1.921       .  S
C1056      C1057   1.408       .  A
C1057      C1058   1.397       .  A
C1057      H1060   1.083       .  S
C1058     Br1064   1.919       .  S
C1065      C1066   1.409       .  A
C1065      C1070   1.403       .  A
C1066      C1067   1.396       .  A
C1066     Br1082   1.919       .  S
C1067      C1068   1.401       .  A
C1067      H1071   1.084       .  S
C1068      C1072   1.470       .  S
C1068      C1069   1.406       .  A
C1069      C1070   1.396       .  A
C1069     Br1081   1.919       .  S
C1070      H1073   1.084       .  S
C1072      C1074   1.399       .  A
C1072      C1078   1.406       .  A
C1074      C1075   1.396       .  A
C1074      H1079   1.084       .  S
C1075      C1076   1.414       .  A
C1075     Br1083   1.922       .  S
C1076      C1077   1.405       .  A
C1077      C1078   1.397       .  A
C1077      H1080   1.084       .  S
C1078     Br1084   1.919       .  S
C1085      C1086   1.419       .  A
C1085      C1090   1.409       .  A
C1086      C1087   1.401       .  A
C1086     Br1102   1.922       .  S
C1087      C1088   1.400       .  A
C1087      H1091   1.084       .  S
C1088      C1092   1.475       .  S
C1088      C1089   1.402       .  A
C1089      C1090   1.397       .  A
C1089     Br1101   1.918       .  S
C1090      H1093   1.083       .  S
C1092      C1094   1.400       .  A
C1092      C1098   1.406       .  A
C1094      C1095   1.397       .  A
C1094      H1099   1.084       .  S
C1095      C1096   1.412       .  A
C1095     Br1103   1.920       .  S
C1096      C1097   1.407       .  A
C1097      C1098   1.401       .  A
C1097      H1100   1.083       .  S
C1098     Br1104   1.917       .  S
C1105      C1106   1.417       .  A
C1105      C1110   1.408       .  A
C1106      C1107   1.397       .  A
C1106     Br1122   1.922       .  S
C1107      C1108   1.400       .  A
C1107      H1111   1.084       .  S
C1108      C1112   1.472       .  S
C1108      C1109   1.404       .  A
C1109      C1110   1.396       .  A
C1109     Br1121   1.919       .  S
C1110      H1113   1.083       .  S
C1112      C1114   1.404       .  A
C1112      C1118   1.406       .  A
C1114      C1115   1.400       .  A
C1114      H1119   1.083       .  S
C1115      C1116   1.408       .  A
C1115     Br1123   1.918       .  S
C1116      C1117   1.403       .  A
C1117      C1118   1.393       .  A
C1117      H1120   1.084       .  S
C1118     Br1124   1.920       .  S
C1125      C1126   1.419       .  A
C1125      C1130   1.410       .  A
C1126      C1127   1.398       .  A
C1126     Br1142   1.922       .  S
C1127      C1128   1.399       .  A
C1127      H1131   1.084       .  S
C1128      C1132   1.473       .  S
C1128      C1129   1.403       .  A
C1129      C1130   1.398       .  A
C1129     Br1141   1.918       .  S
C1130      H1133   1.083       .  S
C1132      C1134   1.400       .  A
C1132      C1138   1.405       .  A
C1134      C1135   1.397       .  A
C1134      H1139   1.084       .  S
C1135      C1136   1.414       .  A
C1135     Br1143   1.922       .  S
C1136      C1137   1.406       .  A
C1137      C1138   1.398       .  A
C1137      H1140   1.083       .  S
C1138     Br1144   1.918       .  S
C1145      C1146   1.417       .  A
C1145      C1150   1.408       .  A
C1146      C1147   1.395       .  A
C1146     Br1162   1.923       .  S
C1147      C1148   1.397       .  A
C1147      H1151   1.084       .  S
C1148      C1152   1.469       .  S
C1148      C1149   1.403       .  A
C1149      C1150   1.397       .  A
C1149     Br1161   1.918       .  S
C1150      H1153   1.083       .  S
C1152      C1154   1.402       .  A
C1152      C1158   1.404       .  A
C1154      C1155   1.399       .  A
C1154      H1159   1.083       .  S
C1155      C1156   1.408       .  A
C1155     Br1163   1.918       .  S
C1156      C1157   1.404       .  A
C1157      C1158   1.394       .  A
C1157      H1160   1.084       .  S
C1158     Br1164   1.919       .  S
C1165      C1166   1.418       .  A
C1165      C1170   1.408       .  A
C1166      C1167   1.398       .  A
C1166     Br1182   1.922       .  S
C1167      C1168   1.398       .  A
C1167      H1171   1.084       .  S
C1168      C1172   1.468       .  S
C1168      C1169   1.402       .  A
C1169      C1170   1.393       .  A
C1169     Br1181   1.919       .  S
C1170      H1173   1.083       .  S
C1172      C1174   1.398       .  A
C1172      C1178   1.405       .  A
C1174      C1175   1.393       .  A
C1174      H1179   1.084       .  S
C1175      C1176   1.411       .  A
C1175     Br1183   1.922       .  S
C1176      C1177   1.404       .  A
C1177      C1178   1.399       .  A
C1177      H1180   1.083       .  S
C1178     Br1184   1.917       .  S
C1185      C1186   1.417       .  A
C1185      C1190   1.407       .  A
C1186      C1187   1.397       .  A
C1186     Br1202   1.922       .  S
C1187      C1188   1.400       .  A
C1187      H1191   1.084       .  S
C1188      C1192   1.479       .  S
C1188      C1189   1.407       .  A
C1189      C1190   1.400       .  A
C1189     Br1201   1.919       .  S
C1190      H1193   1.083       .  S
C1192      C1194   1.402       .  A
C1192      C1198   1.410       .  A
C1194      C1195   1.397       .  A
C1194      H1199   1.084       .  S
C1195      C1196   1.411       .  A
C1195     Br1203   1.921       .  S
C1196      C1197   1.403       .  A
C1197      C1198   1.400       .  A
C1197      H1200   1.083       .  S
C1198     Br1204   1.918       .  S
C1205      C1206   1.418       .  A
C1205      C1210   1.407       .  A
C1206      C1207   1.399       .  A
C1206     Br1222   1.921       .  S
C1207      C1208   1.399       .  A
C1207      H1211   1.084       .  S
C1208      C1212   1.477       .  S
C1208      C1209   1.406       .  A
C1209      C1210   1.400       .  A
C1209     Br1221   1.919       .  S
C1210      H1213   1.083       .  S
C1212      C1214   1.403       .  A
C1212      C1218   1.407       .  A
C1214      C1215   1.400       .  A
C1214      H1219   1.083       .  S
C1215      C1216   1.410       .  A
C1215     Br1223   1.919       .  S
C1216      C1217   1.403       .  A
C1217      C1218   1.399       .  A
C1217      H1220   1.084       .  S
C1218     Br1224   1.918       .  S
C1225      C1226   1.416       .  A
C1225      C1230   1.408       .  A
C1226      C1227   1.401       .  A
C1226     Br1242   1.921       .  S
C1227      C1228   1.401       .  A
C1227      H1231   1.084       .  S
C1228      C1232   1.483       .  S
C1228      C1229   1.408       .  A
C1229      C1230   1.401       .  A
C1229     Br1241   1.919       .  S
C1230      H1233   1.083       .  S
C1232      C1234   1.402       .  A
C1232      C1238   1.409       .  A
C1234      C1235   1.400       .  A
C1234      H1239   1.084       .  S
C1235      C1236   1.412       .  A
C1235     Br1243   1.919       .  S
C1236      C1237   1.407       .  A
C1237      C1238   1.402       .  A
C1237      H1240   1.083       .  S
C1238     Br1244   1.919       .  S
C1245      C1246   1.416       .  A
C1245      C1250   1.407       .  A
C1246      C1247   1.400       .  A
C1246     Br1262   1.921       .  S
C1247      C1248   1.401       .  A
C1247      H1251   1.084       .  S
C1248      C1252   1.475       .  S
C1248      C1249   1.405       .  A
C1249      C1250   1.396       .  A
C1249     Br1261   1.919       .  S
C1250      H1253   1.083       .  S
C1252      C1254   1.402       .  A
C1252      C1258   1.408       .  A
C1254      C1255   1.397       .  A
C1254      H1259   1.084       .  S
C1255      C1256   1.410       .  A
C1255     Br1263   1.920       .  S
C1256      C1257   1.403       .  A
C1257      C1258   1.398       .  A
C1257      H1260   1.084       .  S
C1258     Br1264   1.919       .  S
C1265      C1266   1.408       .  A
C1265      C1270   1.401       .  A
C1266      C1267   1.406       .  A
C1266     Br1282   1.917       .  S
C1267      C1268   1.406       .  A
C1267      H1271   1.083       .  S
C1268      C1272   1.484       .  S
C1268      C1269   1.408       .  A
C1269      C1270   1.398       .  A
C1269     Br1281   1.918       .  S
C1270      H1273   1.084       .  S
C1272      C1274   1.402       .  A
C1272      C1278   1.405       .  A
C1274      C1275   1.406       .  A
C1274      H1279   1.083       .  S
C1275      C1276   1.420       .  A
C1275     Br1283   1.920       .  S
C1276      C1277   1.411       .  A
C1277      C1278   1.399       .  A
C1277      H1280   1.083       .  S
C1278     Br1284   1.920       .  S
C1285      C1286   1.422       .  A
C1285      C1290   1.409       .  A
C1286      C1287   1.401       .  A
C1286     Br1302   1.923       .  S
C1287      C1288   1.398       .  A
C1287      H1291   1.084       .  S
C1288      C1292   1.481       .  S
C1288      C1289   1.406       .  A
C1289      C1290   1.402       .  A
C1289     Br1301   1.918       .  S
C1290      H1293   1.083       .  S
C1292      C1294   1.402       .  A
C1292      C1298   1.409       .  A
C1294      C1295   1.401       .  A
C1294      H1299   1.083       .  S
C1295      C1296   1.408       .  A
C1295     Br1303   1.918       .  S
C1296      C1297   1.403       .  A
C1297      C1298   1.402       .  A
C1297      H1300   1.083       .  S
C1298     Br1304   1.919       .  S
C1305      C1306   1.416       .  A
C1305      C1310   1.408       .  A
C1306      C1307   1.399       .  A
C1306     Br1322   1.922       .  S
C1307      C1308   1.400       .  A
C1307      H1311   1.084       .  S
C1308      C1312   1.474       .  S
C1308      C1309   1.404       .  A
C1309      C1310   1.398       .  A
C1309     Br1321   1.918       .  S
C1310      H1313   1.083       .  S
C1312      C1314   1.403       .  A
C1312      C1318   1.407       .  A
C1314      C1315   1.402       .  A
C1314      H1319   1.083       .  S
C1315      C1316   1.408       .  A
C1315     Br1323   1.917       .  S
C1316      C1317   1.401       .  A
C1317      C1318   1.396       .  A
C1317      H1320   1.084       .  S
C1318     Br1324   1.920       .  S
C1325      C1326   1.418       .  A
C1325      C1330   1.407       .  A
C1326      C1327   1.397       .  A
C1326     Br1342   1.922       .  S
C1327      C1328   1.399       .  A
C1327      H1331   1.084       .  S
C1328      C1332   1.471       .  S
C1328      C1329   1.404       .  A
C1329      C1330   1.397       .  A
C1329     Br1341   1.918       .  S
C1330      H1333   1.083       .  S
C1332      C1334   1.401       .  A
C1332      C1338   1.405       .  A
C1334      C1335   1.397       .  A
C1334      H1339   1.084       .  S
C1335      C1336   1.411       .  A
C1335     Br1343   1.920       .  S
C1336      C1337   1.404       .  A
C1337      C1338   1.396       .  A
C1337      H1340   1.084       .  S
C1338     Br1344   1.918       .  S
