geometry optimzed in LAMMPS
_audit_creation_date              2020-12-01 
_audit_creation_method            'lammps2cif' 
_symmetry_space_group_name_H-M    'P1' 
_symmetry_Int_Tables_number       1 
_symmetry_cell_setting            triclinic 
loop_ 
_symmetry_equiv_pos_as_xyz 
  x,y,z 
_cell_length_a                    29.98027795 
_cell_length_b                    30.00029296919472 
_cell_length_c                    88.4657119295085 
_cell_angle_alpha                 89.98522271501038 
_cell_angle_beta                  90.02158265117642 
_cell_angle_gamma                 119.81335844860955 
loop_ 
_atom_site_label 
_atom_site_type_symbol 
_atom_site_fract_x 
_atom_site_fract_y 
_atom_site_fract_z 
_atom_site_charge 
O1          O  0.72059198  0.44750258  0.10812445    -0.72500
O2          O  0.73040282  0.49762248  0.06543478    -0.73500
O3          O  0.79165338  0.47156019  0.08359005    -0.62100
O4          O  0.66067973  0.47665836  0.08939561    -0.70500
O5          O  0.70784822  0.55759614  0.09665665    -0.70100
O6          O  0.83542756  0.55085058  0.09280638    -0.61300
O7          O  0.77953627  0.57830466  0.07292571    -0.73800
O8          O  0.76376696  0.52734053  0.11653468    -0.72600
Cu9        Cu  0.72411886  0.47039917  0.08645252     1.04600
Cu10       Cu  0.77298948  0.55621186  0.09507902     1.04300
C11         C  0.74053340  0.47884629  0.11915328     0.93700
C12         C  0.75732790  0.54535290  0.06233212     0.92800
C13         C  0.83424088  0.51137194  0.08709935     0.85000
C14         C  0.66419787  0.51938457  0.09326228     0.91200
O15         O  0.75795120  0.46512995  0.90099004    -0.72500
O16         O  0.78083146  0.49787230  0.94518786    -0.73500
O17         O  0.69807259  0.47160461  0.92478054    -0.62100
O18         O  0.84329061  0.49494227  0.92128250    -0.70500
O19         O  0.87014574  0.57646266  0.91600427    -0.70100
O20         O  0.73017381  0.55470744  0.91999584    -0.61300
O21         O  0.81067578  0.58039358  0.94052336    -0.73800
O22         O  0.78583032  0.54664369  0.89549378    -0.72600
Cu23       Cu  0.76925723  0.47946926  0.92320783     1.04600
Cu24       Cu  0.80045341  0.56730863  0.91779288     1.04300
C25         C  0.76596553  0.49969958  0.89122303     0.93700
C26         C  0.79805014  0.54364715  0.95000179     0.92800
C27         C  0.69225520  0.51081445  0.92312330     0.85000
C28         C  0.87994863  0.54028152  0.91824382     0.91200
O29         O  0.19553935  0.54859068  0.08264246    -0.72500
O30         O  0.32482693  0.54827213  0.08893669    -0.73500
O31         O  0.26175923  0.57056011  0.10808247    -0.62100
O32         O  0.25956243  0.53031765  0.06345544    -0.70500
O33         O  0.30258035  0.61315341  0.05791162    -0.70100
O34         O  0.30590760  0.65221658  0.10132903    -0.61300
O35         O  0.37065712  0.63035738  0.08256849    -0.73800
O36         O  0.23696947  0.63136187  0.07659867    -0.72600
Cu37       Cu  0.25909088  0.54666666  0.08605209     1.04600
Cu38       Cu  0.30572466  0.63468005  0.07943664     1.04300
C39         C  0.19505903  0.58868509  0.07823929     0.93700
C40         C  0.36820092  0.58816157  0.08659673     0.92800
C41         C  0.28397856  0.61840508  0.11164481     0.85000
C42         C  0.27986906  0.56637397  0.05357479     0.91200
O43         O  0.32998942  0.61007310  0.93582729    -0.72500
O44         O  0.36314992  0.65264793  0.89252779    -0.73500
O45         O  0.28433072  0.64209872  0.91323979    -0.62100
O46         O  0.40505753  0.61716355  0.91535119    -0.70500
O47         O  0.35251060  0.53587845  0.90896659    -0.70100
O48         O  0.23631305  0.56180911  0.90533486    -0.61300
O49         O  0.31562926  0.57212935  0.88499302    -0.73800
O50         O  0.27712483  0.52906005  0.92944167    -0.72600
Cu51       Cu  0.34723581  0.63337168  0.91440919     1.04600
Cu52       Cu  0.29347711  0.54701546  0.90685766     1.04300
C53         C  0.30001258  0.56347562  0.93966269     0.93700
C54         C  0.34662149  0.61959645  0.88185830     0.92800
C55         C  0.24067933  0.60473016  0.90916369     0.85000
C56         C  0.39661919  0.57146499  0.91307268     0.91200
O57         O  0.55204273  0.24540712  0.76617827    -0.72500
O58         O  0.53597248  0.36741535  0.75912493    -0.73500
O59         O  0.51812790  0.28243857  0.74152537    -0.62100
O60         O  0.57266953  0.33383146  0.78385749    -0.70500
O61         O  0.65179125  0.37551415  0.77482476    -0.70100
O62         O  0.59826271  0.32543810  0.73307168    -0.61300
O63         O  0.61592275  0.41174134  0.75048239    -0.73800
O64         O  0.63143736  0.28675290  0.75710642    -0.72600
Cu65       Cu  0.54211858  0.30573192  0.76307813     1.04600
Cu66       Cu  0.62723970  0.35129230  0.75364545     1.04300
C67         C  0.59302827  0.24560349  0.76219732     0.93700
C68         C  0.57240674  0.40816703  0.75333989     0.92800
C69         C  0.55016103  0.29746613  0.73053378     0.85000
C70         C  0.62094875  0.36374379  0.78600171     0.91200
O71         O  0.57781870  0.33973262  0.61454835    -0.72500
O72         O  0.62067848  0.34230902  0.57174233    -0.73500
O73         O  0.59328759  0.40497026  0.58931634    -0.62100
O74         O  0.60231864  0.27630995  0.59678605    -0.70500
O75         O  0.51986546  0.22995132  0.59049356    -0.70100
O76         O  0.51202768  0.35572216  0.58240202    -0.61300
O77         O  0.53976013  0.29354449  0.56467568    -0.73800
O78         O  0.49561113  0.29191484  0.60839621    -0.72600
Cu79       Cu  0.60135323  0.34270550  0.59331104     1.04600
Cu80       Cu  0.51398934  0.29138348  0.58622536     1.04300
C81         C  0.53066591  0.31416166  0.61845411     0.93700
C82         C  0.58787345  0.31738033  0.56144093     0.92800
C83         C  0.55070030  0.40020383  0.58461865     0.85000
C84         C  0.56153907  0.23276250  0.59495873     0.91200
O85         O  0.45563007  0.75613335  0.76658115    -0.72500
O86         O  0.49646961  0.79535967  0.72327170    -0.73500
O87         O  0.46879587  0.70619574  0.74114330    -0.62100
O88         O  0.48651229  0.84751222  0.74895996    -0.70500
O89         O  0.56756430  0.87487137  0.75504545    -0.70100
O90         O  0.55120856  0.73788749  0.74695531    -0.61300
O91         O  0.57847256  0.82458199  0.72884659    -0.73800
O92         O  0.53641858  0.78405874  0.77305339    -0.72600
Cu93       Cu  0.47403032  0.77548206  0.74479570     1.04600
Cu94       Cu  0.56120879  0.80661304  0.75122273     1.04300
C95         C  0.48863203  0.76203040  0.77667257     0.93700
C96         C  0.54319772  0.81477352  0.71904857     0.92800
C97         C  0.50815141  0.70057980  0.74280814     0.85000
C98         C  0.53060676  0.88388902  0.75316832     0.91200
O99         O  0.47783539  0.77110555  0.60342070    -0.72500
O100        O  0.42411498  0.76352445  0.56150999    -0.73500
O101        O  0.45223000  0.70099482  0.57906281    -0.62100
O102        O  0.45301142  0.83491380  0.58614216    -0.70500
O103        O  0.53286380  0.87632883  0.57730317    -0.70100
O104        O  0.53191758  0.74541786  0.57055120    -0.61300
O105        O  0.50308132  0.80634216  0.55235283    -0.73800
O106        O  0.55836442  0.81538108  0.59537623    -0.72600
Cu107      Cu  0.44894000  0.76608322  0.58272760     1.04600
Cu108      Cu  0.53418925  0.81223703  0.57349174     1.04300
C109        C  0.52596523  0.79477903  0.60620588     0.93700
C110        C  0.45424451  0.78315228  0.55023333     0.92800
C111        C  0.49304162  0.70239822  0.57410302     0.85000
C112        C  0.49476096  0.87684697  0.58347342     0.91200
O113        O  0.29896035  0.73919046  0.22845874    -0.72500
O114        O  0.29362916  0.77455428  0.27183531    -0.73500
O115        O  0.22888400  0.69081024  0.25311912    -0.62100
O116        O  0.36241375  0.82617857  0.24746313    -0.70500
O117        O  0.31561151  0.86185844  0.24149455    -0.70100
O118        O  0.18648314  0.72984325  0.24538804    -0.61300
O119        O  0.24611850  0.80968049  0.26593536    -0.73800
O120        O  0.25615949  0.77790228  0.22126191    -0.72600
Cu121      Cu  0.29768154  0.75642457  0.25036632     1.04600
Cu122      Cu  0.24981878  0.79629622  0.24324574     1.04300
C123        C  0.27812998  0.75175535  0.21793424     0.93700
C124        C  0.26821274  0.79619727  0.27593563     0.92800
C125        C  0.18659148  0.69014207  0.25033476     0.85000
C126        C  0.35944924  0.86610594  0.24394413     0.91200
O127        O  0.31535710  0.85268408  0.41797006    -0.72500
O128        O  0.18142144  0.72907613  0.42512188    -0.73500
O129        O  0.27054274  0.78920019  0.44355282    -0.62100
O130        O  0.23039251  0.79258181  0.39926654    -0.70500
O131        O  0.26464629  0.74428800  0.39347048    -0.70100
O132        O  0.30140299  0.73897878  0.43658247    -0.61300
O133        O  0.21235661  0.67863454  0.41835286    -0.73800
O134        O  0.35122087  0.80575009  0.41191755    -0.72600
Cu135      Cu  0.24805191  0.79235047  0.42174502     1.04600
Cu136      Cu  0.28335775  0.74004021  0.41488315     1.04300
C137        C  0.35425804  0.84947820  0.41382227     0.93700
C138        C  0.17471592  0.68430661  0.42269944     0.92800
C139        C  0.29352804  0.76398186  0.44688857     0.85000
C140        C  0.24284916  0.76952853  0.38931434     0.91200
O141        O  0.70012438  0.23522247  0.24759888    -0.72500
O142        O  0.82776413  0.36677826  0.25458323    -0.73500
O143        O  0.76724826  0.28139070  0.27302020    -0.62100
O144        O  0.76081927  0.32375884  0.22934869    -0.70500
O145        O  0.71424196  0.35766349  0.23714024    -0.70100
O146        O  0.72387020  0.31986484  0.28019409    -0.61300
O147        O  0.78467842  0.40553695  0.26174067    -0.73800
O148        O  0.65307095  0.26859372  0.25563847    -0.72600
Cu149      Cu  0.76528724  0.30042942  0.25083566     1.04600
Cu150      Cu  0.71703620  0.33892077  0.25888578     1.04300
C151        C  0.65629994  0.23019729  0.25059166     0.93700
C152        C  0.82729308  0.40622068  0.25967471     0.92800
C153        C  0.74864804  0.29677073  0.28353379     0.85000
C154        C  0.73693258  0.34834328  0.22640673     0.91200
O155        O  0.69245884  0.32008288  0.44373156    -0.72500
O156        O  0.72459195  0.30872167  0.40079581    -0.73500
O157        O  0.64524313  0.24519772  0.42064856    -0.62100
O158        O  0.77477761  0.38302361  0.42393881    -0.70500
O159        O  0.81653953  0.34353605  0.43173208    -0.70100
O160        O  0.69102903  0.20846751  0.42717897    -0.61300
O161        O  0.77065539  0.27236364  0.40716078    -0.73800
O162        O  0.73369082  0.28042504  0.45153444    -0.72600
Cu163      Cu  0.70793929  0.31573355  0.42209536     1.04600
Cu164      Cu  0.75461414  0.27496041  0.42972294     1.04300
C165        C  0.70694206  0.30208699  0.45451171     0.93700
C166        C  0.75105533  0.28794509  0.39695556     0.92800
C167        C  0.64891160  0.20500741  0.42288195     0.85000
C168        C  0.81627629  0.38463037  0.42830966     0.91200
C169        C  0.71479275  0.26693797  0.35556017    -0.01600
C170        C  0.76053129  0.27615604  0.34837614     0.07000
C171        C  0.80329129  0.28619379  0.35738918    -0.07600
C172        C  0.80101406  0.28801205  0.37332742     0.04400
C173        C  0.75556308  0.28056597  0.38043532    -0.14800
C174        C  0.71268118  0.26913299  0.37132642    -0.08100
C175        C  0.76477261  0.28014436  0.33151457     0.05400
C176        C  0.78607282  0.32897527  0.32491360    -0.09200
C177        C  0.78250023  0.33474245  0.30928663     0.00400
C178        C  0.75785580  0.29107434  0.29980148     0.00200
C179        C  0.73894626  0.24216652  0.30627794    -0.12800
C180        C  0.74166295  0.23644402  0.32202973     0.00700
C181        C  0.80395596  0.38612826  0.30327894     0.40000
C182        C  0.71872092  0.18541779  0.32834322     0.36600
C183        C  0.67008974  0.25758660  0.34691095     0.36400
C184        C  0.84647054  0.30046611  0.38201838     0.37100
N185        N  0.82119462  0.42741593  0.29855661    -0.43700
N186        N  0.70022398  0.14457806  0.33347547    -0.44100
N187        N  0.88295759  0.31049955  0.38898771    -0.41500
N188        N  0.63435432  0.25025630  0.33996559    -0.42900
H189        H  0.67728920  0.26287671  0.37656196     0.13200
H190        H  0.83881848  0.29383295  0.35195204     0.09700
H191        H  0.80353377  0.36272394  0.33210265     0.10800
H192        H  0.71989805  0.20838400  0.29915116     0.16600
C193        C  0.57736370  0.06950290  0.40857634    -0.01600
C194        C  0.52749807  0.05223007  0.41418845     0.07000
C195        C  0.51710070  0.08608783  0.42245146    -0.07600
C196        C  0.55566662  0.13673879  0.42514300     0.04400
C197        C  0.60566644  0.15357373  0.41973815    -0.14800
C198        C  0.61598074  0.11977291  0.41146527    -0.08100
C199        C  0.48574222  0.99875851  0.41190678     0.05400
C200        C  0.49068721  0.95820611  0.41805793    -0.09200
C201        C  0.44927337  0.90781565  0.41783573     0.00400
C202        C  0.40227937  0.89794302  0.41138479     0.00200
C203        C  0.39852164  0.93803814  0.40444861    -0.12800
C204        C  0.43967154  0.98815467  0.40466698     0.00700
C205        C  0.45449821  0.86803548  0.42542224     0.40000
C206        C  0.43312688  0.02826501  0.39781855     0.36600
C207        C  0.58965282  0.03672756  0.39965616     0.36400
C208        C  0.54369609  0.16971868  0.43406311     0.37100
N209        N  0.45853536  0.83611072  0.43153571    -0.43700
N210        N  0.42780261  0.06045827  0.39242109    -0.44100
N211        N  0.53410837  0.19610270  0.44124406    -0.41500
N212        N  0.59961956  0.01054184  0.39251565    -0.42900
H213        H  0.65443818  0.13286103  0.40717014     0.13200
H214        H  0.47886600  0.07262032  0.42697011     0.09700
H215        H  0.52606153  0.96635765  0.42370568     0.10800
H216        H  0.36243361  0.93048298  0.39939467     0.16600
C217        C  0.95042657  0.48199724  0.44052831    -0.01600
C218        C  0.96529744  0.51920183  0.42907258     0.07000
C219        C  0.92963110  0.51457801  0.41806004    -0.07600
C220        C  0.87974806  0.47223983  0.41801642     0.04400
C221        C  0.86530532  0.43367887  0.42913469    -0.14800
C222        C  0.90079913  0.43949895  0.44044667    -0.08100
C223        C  0.01900747  0.56124059  0.42781956     0.05400
C224        C  0.05269840  0.55437923  0.41841833    -0.09200
C225        C  0.10407448  0.59304959  0.41687285     0.00400
C226        C  0.12232383  0.63977360  0.42485468     0.00200
C227        C  0.08824571  0.64590583  0.43446306    -0.12800
C228        C  0.03701282  0.60715782  0.43598902     0.00700
C229        C  0.13619289  0.58414048  0.40660321     0.40000
C230        C  0.00339309  0.61551264  0.44581247     0.36600
C231        C  0.98611937  0.48606100  0.45215200     0.36400
C232        C  0.84558950  0.46742874  0.40582918     0.37100
N233        N  0.16158778  0.57646732  0.39836512    -0.43700
N234        N  0.97641960  0.62220587  0.45366928    -0.44100
N235        N  0.81810171  0.46328421  0.39605909    -0.41500
N236        N  0.01497624  0.48973597  0.46143263    -0.42900
H237        H  0.89008970  0.41015378  0.44905807     0.13200
H238        H  0.94136585  0.54330477  0.40921608     0.09700
H239        H  0.03859584  0.51872582  0.41218873     0.10800
H240        H  0.10148705  0.68134573  0.44073319     0.16600
C241        C  0.43898428  0.00971753  0.23728135    -0.01600
C242        C  0.48716926  0.02199158  0.24327240     0.07000
C243        C  0.49503855  0.98226037  0.24854528    -0.07600
C244        C  0.45497706  0.93086579  0.24846493     0.04400
C245        C  0.40574244  0.91854986  0.24297201    -0.14800
C246        C  0.39908549  0.95867108  0.23714338    -0.08100
C247        C  0.52928838  0.07624520  0.24447231     0.05400
C248        C  0.52511660  0.10893406  0.25503859    -0.09200
C249        C  0.56482560  0.15993922  0.25687952     0.00400
C250        C  0.61007117  0.17885206  0.24810559     0.00200
C251        C  0.61313054  0.14626887  0.23718316    -0.12800
C252        C  0.57323989  0.09564224  0.23525418     0.00700
C253        C  0.55882521  0.19098838  0.26826632     0.40000
C254        C  0.57776661  0.06457374  0.22355112     0.36600
C255        C  0.42968822  0.04897342  0.23113759     0.36400
C256        C  0.46541389  0.89228085  0.25450002     0.37100
N257        N  0.55376471  0.21575272  0.27739266    -0.43700
N258        N  0.58122510  0.03979783  0.21410009    -0.44100
N259        N  0.47402197  0.86149579  0.25933961    -0.41500
N260        N  0.42235027  0.08046484  0.22618715    -0.42900
H261        H  0.36215286  0.95047696  0.23261820     0.13200
H262        H  0.53235432  0.99164924  0.25305959     0.09700
H263        H  0.49099722  0.09420930  0.26204091     0.10800
H264        H  0.64705477  0.16031643  0.23012392     0.16600
C265        C  0.04774523  0.59290620  0.24487144    -0.01600
C266        C  0.03220764  0.57509702  0.25978026     0.07000
C267        C  0.06955749  0.59074259  0.27122460    -0.07600
C268        C  0.12138916  0.62544519  0.26812302     0.04400
C269        C  0.13629905  0.64480335  0.25335077    -0.14800
C270        C  0.09928553  0.62796661  0.24184644    -0.08100
C271        C  0.97819958  0.53591075  0.26317033     0.05400
C272        C  0.96864552  0.48776390  0.26817717    -0.09200
C273        C  0.91876757  0.44608631  0.26841003     0.00400
C274        C  0.87737081  0.45195346  0.26315301     0.00200
C275        C  0.88606079  0.50139494  0.25986208    -0.12800
C276        C  0.93622745  0.54359122  0.26003794     0.00700
C277        C  0.91134309  0.39745098  0.27387876     0.40000
C278        C  0.94396177  0.59406560  0.25669788     0.36600
C279        C  0.01175846  0.57512210  0.23242612     0.36400
C280        C  0.15795549  0.64314037  0.28041153     0.37100
N281        N  0.90536347  0.35854687  0.27830256    -0.43700
N282        N  0.95016167  0.63457255  0.25409978    -0.44100
N283        N  0.18735931  0.65750296  0.29023227    -0.41500
N284        N  0.98280608  0.56087929  0.22249029    -0.42900
H285        H  0.11061900  0.64321375  0.23049837     0.13200
H286        H  0.05801906  0.57634002  0.28263370     0.09700
H287        H  0.00055338  0.48204976  0.27117097     0.10800
H288        H  0.85427897  0.50666795  0.25640687     0.16600
C289        C  0.23945585  0.82687092  0.35107434    -0.01600
C290        C  0.23839529  0.79000952  0.34093166     0.07000
C291        C  0.23277548  0.74411852  0.34677503    -0.07600
C292        C  0.23065457  0.73537826  0.36239446     0.04400
C293        C  0.23494501  0.77348891  0.37273251    -0.14800
C294        C  0.23769189  0.81842727  0.36681932    -0.08100
C295        C  0.24706174  0.79926401  0.32429485     0.05400
C296        C  0.29497392  0.81061334  0.31839250    -0.09200
C297        C  0.30338055  0.81255615  0.30274079     0.00400
C298        C  0.26326931  0.80314107  0.29248705     0.00200
C299        C  0.21591374  0.79412761  0.29842876    -0.12800
C300        C  0.20748657  0.79171237  0.31417233     0.00700
C301        C  0.35362050  0.82385330  0.29754811     0.40000
C302        C  0.15717344  0.77863239  0.31970362     0.36600
C303        C  0.24433156  0.87437082  0.34558197     0.36400
C304        C  0.22425815  0.68672496  0.36739082     0.37100
N305        N  0.39387028  0.83281506  0.29341795    -0.43700
N306        N  0.11682775  0.76801592  0.32418679    -0.44100
N307        N  0.21917371  0.64761962  0.37125689    -0.41500
N308        N  0.24805070  0.91238787  0.34116635    -0.42900
H309        H  0.24094463  0.84810527  0.37448083     0.13200
H310        H  0.23115827  0.71528125  0.33904117     0.09700
H311        H  0.32559769  0.81646636  0.32609267     0.10800
H312        H  0.18452530  0.78614666  0.29078602     0.16600
C313        C  0.43935402  0.81457509  0.50921273    -0.01600
C314        C  0.38794830  0.77715793  0.50588346     0.07000
C315        C  0.35975121  0.73998094  0.51686995    -0.07600
C316        C  0.38087866  0.74043365  0.53108069     0.04400
C317        C  0.43172030  0.77922738  0.53476433    -0.14800
C318        C  0.46059205  0.81548321  0.52352231    -0.08100
C319        C  0.36301876  0.77441816  0.49091335     0.05400
C320        C  0.34700089  0.73066649  0.48186105    -0.09200
C321        C  0.32272416  0.72563440  0.46787124     0.00400
C322        C  0.31365154  0.76508329  0.46251852     0.00200
C323        C  0.32816572  0.80815042  0.47186057    -0.12800
C324        C  0.35255709  0.81305172  0.48588806     0.00700
C325        C  0.30672257  0.67886594  0.45943425     0.40000
C326        C  0.36573772  0.85768025  0.49506277     0.36600
C327        C  0.47150799  0.85149465  0.49797570     0.36400
C328        C  0.34964777  0.69932529  0.54141909     0.37100
N329        N  0.29393128  0.64134111  0.45270461    -0.43700
N330        N  0.37639488  0.89346154  0.50243681    -0.44100
N331        N  0.32455377  0.66619550  0.54964251    -0.41500
N332        N  0.49735463  0.88099619  0.48895109    -0.42900
H333        H  0.49977653  0.84505192  0.52594750     0.13200
H334        H  0.32070757  0.71025709  0.51431417     0.09700
H335        H  0.35375948  0.70019835  0.48574216     0.10800
H336        H  0.32156913  0.83877084  0.46805302     0.16600
C337        C  0.59119076  0.80396071  0.68020930    -0.01600
C338        C  0.56472149  0.82061508  0.67061138     0.07000
C339        C  0.53547207  0.84032672  0.67712764    -0.07600
C340        C  0.53016048  0.84127438  0.69287721     0.04400
C341        C  0.55512396  0.82293101  0.70255266    -0.14800
C342        C  0.58678936  0.80585796  0.69602552    -0.08100
C343        C  0.56230982  0.81318992  0.65385828     0.05400
C344        C  0.52723947  0.76476474  0.64799933    -0.09200
C345        C  0.51707661  0.75750515  0.63243647     0.00400
C346        C  0.54287567  0.79909378  0.62226711     0.00200
C347        C  0.58039943  0.84691983  0.62804819    -0.12800
C348        C  0.58977554  0.85432735  0.64372033     0.00700
C349        C  0.47900215  0.70711139  0.62720355     0.40000
C350        C  0.62633025  0.90477852  0.64925055     0.36600
C351        C  0.62162803  0.78321212  0.67405655     0.36400
C352        C  0.49836398  0.86082723  0.69880661     0.37100
N353        N  0.44835609  0.66688663  0.62295051    -0.43700
N354        N  0.65557008  0.94517630  0.65374958    -0.44100
N355        N  0.47283038  0.87652175  0.70350747    -0.41500
N356        N  0.64598834  0.76648048  0.66914156    -0.42900
H357        H  0.60581799  0.79120910  0.70326145     0.13200
H358        H  0.51502314  0.85323804  0.66982658     0.09700
H359        H  0.50598261  0.73295028  0.65571061     0.10800
H360        H  0.60023004  0.87930189  0.62042923     0.16600
C361        C  0.51197155  0.09688326  0.60750545    -0.01600
C362        C  0.54049226  0.08200955  0.59823646     0.07000
C363        C  0.58152824  0.11937318  0.58965419    -0.07600
C364        C  0.59229103  0.17041053  0.58948132     0.04400
C365        C  0.56093992  0.18422291  0.59776689    -0.14800
C366        C  0.52191091  0.14760004  0.60704671    -0.08100
C367        C  0.52599880  0.02736531  0.59633616     0.05400
C368        C  0.47784298  0.99284338  0.59002025    -0.09200
C369        C  0.46548410  0.94260747  0.58617890     0.00400
C370        C  0.50211346  0.92690787  0.58847102     0.00200
C371        C  0.54922504  0.96079678  0.59538847    -0.12800
C372        C  0.56123921  0.01047998  0.59940645     0.00700
C373        C  0.41657712  0.90917661  0.57912257     0.40000
C374        C  0.60996959  0.04346454  0.60664739     0.36600
C375        C  0.47235866  0.06076464  0.61748459     0.36400
C376        C  0.63299125  0.20678017  0.57984532     0.37100
N377        N  0.37736320  0.88237892  0.57345972    -0.43700
N378        N  0.64897911  0.06983582  0.61247422    -0.44100
N379        N  0.66575483  0.23579041  0.57212861    -0.41500
N380        N  0.44092957  0.03188808  0.62557617    -0.42900
H381        H  0.49808248  0.15833972  0.61357808     0.13200
H382        H  0.60375960  0.10812843  0.58255137     0.09700
H383        H  0.45067163  0.00579990  0.58757771     0.10800
H384        H  0.57706791  0.94846266  0.59756476     0.16600
C385        C  0.50074504  0.48246825  0.56743809    -0.01600
C386        C  0.52635993  0.52795081  0.57599473     0.07000
C387        C  0.56137479  0.53208704  0.58720834    -0.07600
C388        C  0.57062895  0.49145769  0.59013113     0.04400
C389        C  0.54498424  0.44576177  0.58156649    -0.14800
C390        C  0.51033345  0.44205854  0.57022934    -0.08100
C391        C  0.51595738  0.57106164  0.57389166     0.05400
C392        C  0.46806309  0.56459373  0.57819084    -0.09200
C393        C  0.45856559  0.60592780  0.57790141     0.00400
C394        C  0.49755412  0.65506685  0.57303431     0.00200
C395        C  0.54467744  0.66037800  0.56805614    -0.12800
C396        C  0.55421201  0.61926247  0.56858353     0.00700
C397        C  0.40918379  0.59672662  0.58321046     0.40000
C398        C  0.60394613  0.62767570  0.56387023     0.36600
C399        C  0.46456463  0.47641333  0.55573297     0.36400
C400        C  0.60374054  0.49645165  0.60263828     0.37100
N401        N  0.36956973  0.58908168  0.58754295    -0.43700
N402        N  0.64386172  0.63445976  0.56015920    -0.44100
N403        N  0.62991913  0.50039249  0.61276205    -0.41500
N404        N  0.43544073  0.47135743  0.54636972    -0.42900
H405        H  0.49032173  0.40723093  0.56355391     0.13200
H406        H  0.58048862  0.56676268  0.59398575     0.09700
H407        H  0.43856977  0.52743666  0.58230786     0.10800
H408        H  0.57518410  0.69731196  0.56415786     0.16600
C409        C  0.58643051  0.29588069  0.51887669    -0.01600
C410        C  0.63789275  0.30912071  0.51587779     0.07000
C411        C  0.67304001  0.32600607  0.52787489    -0.07600
C412        C  0.65795728  0.32927724  0.54264974     0.04400
C413        C  0.60614038  0.31560592  0.54578601    -0.14800
C414        C  0.57104209  0.29894641  0.53367759    -0.08100
C415        C  0.65629515  0.30704206  0.50029544     0.05400
C416        C  0.65365744  0.33829877  0.48898681    -0.09200
C417        C  0.67091908  0.33830487  0.47425494     0.00400
C418        C  0.69135928  0.30591545  0.47039171     0.00200
C419        C  0.69501664  0.27543792  0.48189433    -0.12800
C420        C  0.67792794  0.27588020  0.49669057     0.00700
C421        C  0.66788074  0.37307455  0.46355020     0.40000
C422        C  0.68187880  0.24312940  0.50793171     0.36600
C423        C  0.54840568  0.27806175  0.50699768     0.36400
C424        C  0.69678286  0.34576199  0.55428678     0.37100
N425        N  0.66535533  0.40108014  0.45505140    -0.43700
N426        N  0.68513409  0.21710990  0.51701023    -0.44100
N427        N  0.72813103  0.35894300  0.56354036    -0.41500
N428        N  0.51788101  0.26388792  0.49748473    -0.42900
H429        H  0.53129335  0.28830638  0.53574004     0.13200
H430        H  0.71278924  0.33685881  0.52565737     0.09700
H431        H  0.63835913  0.36337498  0.49174753     0.10800
H432        H  0.71049918  0.25044386  0.47929710     0.16600
C433        C  0.60419491  0.02727115  0.76117868    -0.01600
C434        C  0.56596790  0.04122451  0.75992667     0.07000
C435        C  0.51525165  0.00311279  0.75670916    -0.07600
C436        C  0.50220789  0.95163215  0.75465711     0.04400
C437        C  0.54066773  0.93741347  0.75570716    -0.14800
C438        C  0.59142204  0.97603261  0.75908403    -0.08100
C439        C  0.57802116  0.09540532  0.76171166     0.05400
C440        C  0.60957222  0.13217789  0.75100796    -0.09200
C441        C  0.61750377  0.18236136  0.75141321     0.00400
C442        C  0.59378182  0.19653043  0.76279833     0.00200
C443        C  0.56406407  0.16015885  0.77387523    -0.12800
C444        C  0.55611923  0.11006446  0.77342208     0.00700
C445        C  0.64644217  0.21694186  0.73928110     0.40000
C446        C  0.52483286  0.07407678  0.78498487     0.36600
C447        C  0.65664867  0.06469118  0.76490037     0.36400
C448        C  0.44906313  0.91472560  0.75161566     0.37100
N449        N  0.66934513  0.24460736  0.72951876    -0.43700
N450        N  0.49975811  0.04507088  0.79421784    -0.44100
N451        N  0.40633032  0.88537828  0.74922598    -0.41500
N452        N  0.69868376  0.09459576  0.76790410    -0.42900
H453        H  0.62173679  0.96645261  0.76005726     0.13200
H454        H  0.48569410  0.01378561  0.75572687     0.09700
H455        H  0.62625649  0.12096830  0.74192549     0.10800
H456        H  0.54574004  0.17048420  0.78269697     0.16600
C457        C  0.50179482  0.47466004  0.73945681    -0.01600
C458        C  0.53618718  0.52626967  0.74313334     0.07000
C459        C  0.58385679  0.53951774  0.74973096    -0.07600
C460        C  0.59722998  0.50191244  0.75289018     0.04400
C461        C  0.56231971  0.45011220  0.74948724    -0.14800
C462        C  0.51498809  0.43708684  0.74269199    -0.08100
C463        C  0.52252653  0.56689623  0.74085145     0.05400
C464        C  0.48356022  0.56649423  0.74976344    -0.09200
C465        C  0.47496886  0.60830914  0.74963928     0.00400
C466        C  0.50549078  0.65096014  0.74035917     0.00200
C467        C  0.54224983  0.64990086  0.73078661    -0.12800
C468        C  0.55094878  0.60829665  0.73094547     0.00700
C469        C  0.43862607  0.60906321  0.76020041     0.40000
C470        C  0.59042264  0.60961888  0.72129144     0.36600
C471        C  0.45309374  0.45954024  0.73224860     0.36400
C472        C  0.64537726  0.51689965  0.76042510     0.37100
N473        N  0.40985953  0.61009246  0.76871838    -0.43700
N474        N  0.62209182  0.61059089  0.71359105    -0.44100
N475        N  0.68382115  0.52874513  0.76653652    -0.41500
N476        N  0.41410600  0.44747239  0.72645115    -0.42900
H477        H  0.48817954  0.39732643  0.73990820     0.13200
H478        H  0.61014179  0.57922568  0.75272807     0.09700
H479        H  0.46187303  0.53474744  0.75748569     0.10800
H480        H  0.56611669  0.68299862  0.72372152     0.16600
C481        C  0.55710674  0.27914558  0.68860154    -0.01600
C482        C  0.51621417  0.28495651  0.68303230     0.07000
C483        C  0.48126377  0.28635109  0.69329961    -0.07600
C484        C  0.48892883  0.28603186  0.70898853     0.04400
C485        C  0.53279792  0.28516399  0.71455377    -0.14800
C486        C  0.56534344  0.27979914  0.70419153    -0.08100
C487        C  0.51334947  0.29516775  0.66668602     0.05400
C488        C  0.47780475  0.25603688  0.65723596    -0.09200
C489        C  0.48004986  0.26247509  0.64143797     0.00400
C490        C  0.51848916  0.30893337  0.63490355     0.00200
C491        C  0.55173307  0.34906097  0.64454619    -0.12800
C492        C  0.54938612  0.34261581  0.66024806     0.00700
C493        C  0.44524205  0.21937793  0.63222834     0.40000
C494        C  0.58575425  0.38462173  0.66954823     0.36600
C495        C  0.59216462  0.27423515  0.67845958     0.36400
C496        C  0.45324017  0.29024498  0.71901601     0.37100
N497        N  0.41734504  0.18474968  0.62486216    -0.43700
N498        N  0.61488143  0.41816396  0.67702927    -0.44100
N499        N  0.42440468  0.29334919  0.72703152    -0.41500
N500        N  0.62006772  0.27011235  0.67030299    -0.42900
H501        H  0.59853849  0.27799073  0.70827735     0.13200
H502        H  0.44939378  0.29020220  0.68905935     0.09700
H503        H  0.44998125  0.21951701  0.66214997     0.10800
H504        H  0.58116233  0.38507845  0.63975781     0.16600
C505        C  0.40856101  0.71081419  0.84846841    -0.01600
C506        C  0.40718765  0.67810020  0.83683223     0.07000
C507        C  0.38449605  0.62523559  0.83986090    -0.07600
C508        C  0.36395178  0.60495169  0.85423909     0.04400
C509        C  0.36508035  0.63773602  0.86598097    -0.14800
C510        C  0.38766824  0.69069291  0.86275261    -0.08100
C511        C  0.42813257  0.69853293  0.82138424     0.05400
C512        C  0.48131638  0.72263063  0.81867415    -0.09200
C513        C  0.50227485  0.74370073  0.80439453     0.00400
C514        C  0.46977797  0.74160606  0.79239252     0.00200
C515        C  0.41640947  0.71725966  0.79530146    -0.12800
C516        C  0.39569005  0.69588564  0.80948737     0.00700
C517        C  0.55712889  0.76662856  0.80248797     0.40000
C518        C  0.34080413  0.67179570  0.81164307     0.36600
C519        C  0.43111962  0.76536241  0.84595221     0.36400
C520        C  0.34415456  0.55079512  0.85672859     0.37100
N521        N  0.60114059  0.78480442  0.80103449    -0.43700
N522        N  0.29680877  0.65243565  0.81338185    -0.44100
N523        N  0.32860401  0.50740012  0.85871372    -0.41500
N524        N  0.44929332  0.80907433  0.84389448    -0.42900
H525        H  0.38932237  0.71687960  0.87146671     0.13200
H526        H  0.38338514  0.59976675  0.83098806     0.09700
H527        H  0.50660707  0.72491416  0.82777717     0.10800
H528        H  0.39024408  0.71454611  0.78642405     0.16600
C529        C  0.29622337  0.70738426  0.14423158    -0.01600
C530        C  0.28276730  0.67531090  0.15706648     0.07000
C531        C  0.27086939  0.62398026  0.15498238    -0.07600
C532        C  0.27187389  0.60456396  0.14051855     0.04400
C533        C  0.28380412  0.63633852  0.12756600    -0.14800
C534        C  0.29627852  0.68786360  0.12979674    -0.08100
C535        C  0.28181355  0.69508594  0.17266582     0.05400
C536        C  0.24973314  0.71590056  0.17569371    -0.09200
C537        C  0.24830160  0.73545185  0.19008359     0.00400
C538        C  0.27945581  0.73443658  0.20200644     0.00200
C539        C  0.31165207  0.71370336  0.19884490    -0.12800
C540        C  0.31305350  0.69431873  0.18448865     0.00700
C541        C  0.21346957  0.75502745  0.19225401     0.40000
C542        C  0.34790525  0.67484568  0.18211145     0.36600
C543        C  0.31199019  0.76118935  0.14562493     0.36400
C544        C  0.26269077  0.55267359  0.13948293     0.37100
N545        N  0.18541669  0.77062966  0.19391432    -0.43700
N546        N  0.37576697  0.65913708  0.18022586    -0.44100
N547        N  0.25584438  0.51121569  0.13874425    -0.41500
N548        N  0.32481695  0.80434413  0.14676983    -0.42900
H549        H  0.30627436  0.71348565  0.12017943     0.13200
H550        H  0.26104418  0.59895477  0.16474164     0.09700
H551        H  0.22526373  0.71650695  0.16676054     0.10800
H552        H  0.33617351  0.71251513  0.20765686     0.16600
C553        C  0.23833792  0.51240603  0.97829351    -0.01600
C554        C  0.28055692  0.54042379  0.98808629     0.07000
C555        C  0.32950113  0.57030510  0.98175171    -0.07600
C556        C  0.33652958  0.57546495  0.96606544     0.04400
C557        C  0.29386170  0.55086963  0.95616701    -0.14800
C558        C  0.24521321  0.51776601  0.96245075    -0.08100
C559        C  0.27492907  0.54404474  0.00481243     0.05400
C560        C  0.26658240  0.50336688  0.01448827    -0.09200
C561        C  0.26749307  0.50894137  0.03038022     0.00400
C562        C  0.27644540  0.55590424  0.03687259     0.00200
C563        C  0.28337097  0.59578872  0.02702604    -0.12800
C564        C  0.28298909  0.59041562  0.01129783     0.00700
C565        C  0.26211993  0.46700561  0.03965490     0.40000
C566        C  0.29192961  0.63368919  0.00199573     0.36600
C567        C  0.18743837  0.47975124  0.98425403     0.36400
C568        C  0.38834961  0.60623113  0.96043845     0.37100
N569        N  0.25817547  0.43342640  0.04706121    -0.43700
N570        N  0.29939164  0.66847250  0.99456023    -0.44100
N571        N  0.42991531  0.63071556  0.95596116    -0.41500
N572        N  0.14662812  0.45333591  0.98902575    -0.42900
H573        H  0.21221851  0.49801152  0.95504800     0.13200
H574        H  0.36233902  0.59106984  0.98916496     0.09700
H575        H  0.26117371  0.46783910  0.00962525     0.10800
H576        H  0.28967277  0.63199453  0.03161263     0.16600
C577        C  0.02306389  0.61613384  0.91040745    -0.01600
C578        C  0.03982278  0.58213193  0.91501401     0.07000
C579        C  0.00421696  0.53397831  0.92094931    -0.07600
C580        C  0.95197337  0.51902547  0.92217736     0.04400
C581        C  0.93460416  0.55275573  0.91729376    -0.14800
C582        C  0.97105483  0.60138756  0.91156683    -0.08100
C583        C  0.09339252  0.59402828  0.91244890     0.05400
C584        C  0.13238780  0.62619167  0.92251621    -0.09200
C585        C  0.18236528  0.63386689  0.92102276     0.00400
C586        C  0.19336405  0.60862003  0.90933443     0.00200
C587        C  0.15479632  0.57915988  0.89876147    -0.12800
C588        C  0.10528760  0.57197468  0.90019187     0.00700
C589        C  0.22038211  0.66481554  0.93218900     0.40000
C590        C  0.06682703  0.54103805  0.88911602     0.36600
C591        C  0.05833655  0.66567182  0.90399845     0.36400
C592        C  0.91764899  0.46919698  0.92856586     0.37100
N593        N  0.25089223  0.68970420  0.94112361    -0.43700
N594        N  0.03579467  0.51649146  0.88026808    -0.44100
N595        N  0.89029360  0.42922222  0.93370566    -0.41500
N596        N  0.08662987  0.70531660  0.89884027    -0.42900
H597        H  0.95900052  0.62812735  0.90775758     0.13200
H598        H  0.01730436  0.50770986  0.92443472     0.09700
H599        H  0.12329486  0.64382032  0.93182726     0.10800
H600        H  0.16289350  0.56015011  0.88961544     0.16600
C601        C  0.55969717  0.48279694  0.91284226    -0.01600
C602        C  0.55621625  0.52059032  0.92139758     0.07000
C603        C  0.59401220  0.54939407  0.93208076    -0.07600
C604        C  0.63713377  0.54374809  0.93359508     0.04400
C605        C  0.64200985  0.50744870  0.92462806    -0.14800
C606        C  0.60233675  0.47592693  0.91467060    -0.08100
C607        C  0.51538710  0.53341448  0.91880147     0.05400
C608        C  0.46573516  0.49951825  0.92393242    -0.09200
C609        C  0.42664767  0.51158445  0.92230621     0.05200
C610        C  0.43737734  0.55853800  0.91544086     0.00200
C611        C  0.48730851  0.59266596  0.91044666    -0.12800
C612        C  0.52625856  0.58026185  0.91197425     0.00700
C613        C  0.37644295  0.47594343  0.92829198     0.40000
C614        C  0.57680214  0.61550603  0.90616717     0.36600
C615        C  0.52236896  0.45408631  0.90127066     0.36400
C616        C  0.67737626  0.57818577  0.94371371     0.37100
N617        N  0.33626847  0.44736356  0.93309359    -0.43700
N618        N  0.61729396  0.64358688  0.90147369    -0.44100
N619        N  0.70952374  0.60657007  0.95170352    -0.41500
N620        N  0.49254402  0.43157795  0.89192012    -0.42900
H621        H  0.60665339  0.44906993  0.90746212     0.13200
H622        H  0.59103402  0.57829113  0.93868389     0.09700
H623        H  0.45776461  0.46390986  0.92939356     0.10800
H624        H  0.49559845  0.62847180  0.90506125     0.16600
C625        C  0.70020280  0.41227208  0.85748451    -0.01600
C626        C  0.70894664  0.44702786  0.84557320     0.07000
C627        C  0.73845841  0.49999785  0.84859507    -0.07600
C628        C  0.75855175  0.51842973  0.86312736     0.04400
C629        C  0.74933126  0.48353438  0.87513756    -0.14800
C630        C  0.72031955  0.43052398  0.87192873    -0.08100
C631        C  0.68670181  0.42840390  0.83008848     0.05400
C632        C  0.63332002  0.39621831  0.82847735    -0.09200
C633        C  0.61093151  0.37484632  0.81443003     0.00400
C634        C  0.64208893  0.38573733  0.80136263     0.00200
C635        C  0.69546739  0.41946928  0.80295816    -0.12800
C636        C  0.71772151  0.44071300  0.81703250     0.00700
C637        C  0.55586919  0.34178030  0.81395926     0.40000
C638        C  0.77273981  0.47406648  0.81779266     0.36600
C639        C  0.67070520  0.35736644  0.85520091     0.36400
C640        C  0.78808926  0.57330895  0.86528634     0.37100
N641        N  0.51169621  0.31531809  0.81364478    -0.43700
N642        N  0.81680326  0.50105042  0.81834937    -0.44100
N643        N  0.81172363  0.61734979  0.86698516    -0.41500
N644        N  0.64672306  0.31340319  0.85338305    -0.42900
H645        H  0.71230980  0.40269205  0.88082723     0.13200
H646        H  0.74517063  0.52718701  0.83960148     0.09700
H647        H  0.60888197  0.38731554  0.83834568     0.10800
H648        H  0.72035853  0.42921175  0.79317410     0.16600
C649        C  0.77224068  0.47457515  0.16088164    -0.01600
C650        C  0.73957622  0.42258164  0.16476585     0.07000
C651        C  0.70582539  0.38925719  0.15375054    -0.07600
C652        C  0.70440281  0.40668237  0.13906514     0.04400
C653        C  0.73800970  0.45880079  0.13495646    -0.14800
C654        C  0.77137253  0.49212536  0.14616765    -0.08100
C655        C  0.73879002  0.40278317  0.18040437     0.05400
C656        C  0.71424544  0.41407258  0.19202970    -0.09200
C657        C  0.71293457  0.39696757  0.20692280     0.00400
C658        C  0.73620604  0.36687685  0.21056455     0.00200
C659        C  0.76080736  0.35571072  0.19876722    -0.12800
C660        C  0.76249104  0.37351724  0.18390883     0.00700
C661        C  0.68826975  0.41231984  0.21814749     0.40000
C662        C  0.79037886  0.36286639  0.17252537     0.36600
C663        C  0.80760297  0.51042508  0.17181485     0.36400
C664        C  0.66680865  0.37019471  0.12868380     0.37100
N665        N  0.66864998  0.42510402  0.22706131    -0.43700
N666        N  0.81311544  0.35467505  0.16343285    -0.44100
N667        N  0.63643590  0.34084124  0.12043387    -0.41500
N668        N  0.83587395  0.53897528  0.18063652    -0.42900
H669        H  0.79753790  0.53207202  0.14341115     0.13200
H670        H  0.67991522  0.34940650  0.15671381     0.09700
H671        H  0.69627993  0.43691617  0.18945274     0.10800
H672        H  0.77952731  0.33348201  0.20115107     0.16600
C673        C  0.96833651  0.53895862  0.09413150    -0.01600
C674        C  0.98750611  0.54507444  0.07925167     0.07000
C675        C  0.95348896  0.53198588  0.06699614    -0.07600
C676        C  0.90156557  0.51616629  0.06938935     0.04400
C677        C  0.88358629  0.51412043  0.08423393    -0.14800
C678        C  0.91696511  0.52479646  0.09648270    -0.08100
C679        C  0.04231547  0.56231345  0.07637170     0.05400
C680        C  0.05452748  0.52849928  0.06902352    -0.09200
C681        C  0.10528888  0.53902709  0.06831762     0.00400
C682        C  0.14467270  0.58388505  0.07524014     0.00200
C683        C  0.13324573  0.62026035  0.08121034    -0.12800
C684        C  0.08230720  0.60992716  0.08173556     0.00700
C685        C  0.11584283  0.50263951  0.06069199     0.40000
C686        C  0.07182240  0.64792925  0.08821788     0.36600
C687        C  0.00032431  0.54607241  0.10714707     0.36400
C688        C  0.86820225  0.50471908  0.05645339     0.37100
N689        N  0.12429286  0.47359137  0.05454011    -0.43700
N690        N  0.06350368  0.67840788  0.09344436    -0.44100
N691        N  0.84156878  0.49520128  0.04604818    -0.41500
N692        N  0.02593253  0.55155062  0.11756051    -0.42900
H693        H  0.90299082  0.52297144  0.10790616     0.13200
H694        H  0.96777888  0.53514776  0.05555867     0.09700
H695        H  0.02406169  0.49262201  0.06446689     0.10800
H696        H  0.16351918  0.65520092  0.08626960     0.16600
C697        C  0.45029211  0.53194855  0.09873518    -0.01600
C698        C  0.49609274  0.56191708  0.09066762     0.07000
C699        C  0.50134846  0.60307510  0.08179113    -0.07600
C700        C  0.46110930  0.61399603  0.08062426     0.04400
C701        C  0.41469023  0.58329893  0.08851535    -0.14800
C702        C  0.41038207  0.54294559  0.09767293    -0.08100
C703        C  0.53888123  0.55078968  0.09147886     0.05400
C704        C  0.53191291  0.50429038  0.08562931    -0.09200
C705        C  0.57129839  0.49208434  0.08637639     0.00400
C706        C  0.61873790  0.52683282  0.09328224     0.00200
C707        C  0.62491535  0.57307973  0.09929835    -0.12800
C708        C  0.58586269  0.58541186  0.09831652     0.00700
C709        C  0.56216052  0.44466776  0.07946944     0.40000
C710        C  0.59490591  0.63387089  0.10441665     0.36600
C711        C  0.44335629  0.48972047  0.10820652     0.36400
C712        C  0.46777165  0.65510825  0.07072178     0.37100
N713        N  0.55463514  0.40671406  0.07384497    -0.43700
N714        N  0.60223336  0.67284469  0.10919900    -0.44100
N715        N  0.47322465  0.68804234  0.06274955    -0.41500
N716        N  0.43772859  0.45576875  0.11574254    -0.42900
H717        H  0.37524389  0.51918643  0.10392062     0.13200
H718        H  0.53667763  0.62609064  0.07554662     0.09700
H719        H  0.49568594  0.47774304  0.08028431     0.10800
H720        H  0.66083685  0.60046808  0.10460984     0.16600
C721        C  0.82336264  0.59224485  0.02465241    -0.01600
C722        C  0.78145455  0.56951328  0.01455208     0.07000
C723        C  0.73130589  0.54596129  0.02037053    -0.07600
C724        C  0.72261478  0.54167573  0.03604225     0.04400
C725        C  0.76459648  0.56095846  0.04618298    -0.14800
C726        C  0.81471776  0.58815004  0.04033570    -0.08100
C727        C  0.78919815  0.56573030  0.99805774     0.05400
C728        C  0.79555562  0.52507705  0.99289184    -0.09200
C729        C  0.80094918  0.51839408  0.97742751     0.00400
C730        C  0.80019519  0.55315026  0.96667249     0.00200
C731        C  0.79652460  0.59540359  0.97203747    -0.12800
C732        C  0.79020487  0.60140325  0.98751428     0.00700
C733        C  0.80809781  0.47597296  0.97305626     0.40000
C734        C  0.78370729  0.64377350  0.99231216     0.36600
C735        C  0.87551542  0.61792642  0.01911036     0.36400
C736        C  0.67032325  0.51730518  0.04149640     0.37100
N737        N  0.81396854  0.44198724  0.96965297    -0.43700
N738        N  0.77827555  0.67763863  0.99615314    -0.44100
N739        N  0.62843494  0.49828772  0.04586046    -0.41500
N740        N  0.91722880  0.63851874  0.01457156    -0.42900
H741        H  0.84726216  0.60316034  0.04800342     0.13200
H742        H  0.69888378  0.52926590  0.01265180     0.09700
H743        H  0.79571023  0.49802004  0.00101183     0.10800
H744        H  0.79683285  0.62301388  0.96408231     0.16600
loop_ 
_geom_bond_atom_site_label_1 
_geom_bond_atom_site_label_2 
_geom_bond_distance 
_geom_bond_site_symmetry_2 
_ccdc_geom_bond_type 
O1           Cu9   2.021       .  S
O1           C11   1.279       .  A
O2           Cu9   2.002       .  S
O2           C12   1.276       .  A
O3           Cu9   2.024       .  S
O3           C13   1.279       .  A
O4           Cu9   2.019       .  S
O4           C14   1.279       .  A
O5          Cu10   1.979       .  S
O5           C14   1.275       .  A
O6          Cu10   1.967       .  S
O6           C13   1.272       .  A
O7          Cu10   2.047       .  S
O7           C12   1.282       .  A
O8          Cu10   2.047       .  S
O8           C11   1.284       .  A
Cu9         Cu10   2.368       .  S
C11         C653   1.509       .  S
C12         C725   1.485       .  S
C13         C677   1.462       .  S
C14         C706   1.487       .  S
O15         Cu23   2.005       .  S
O15          C25   1.277       .  A
O16         Cu23   2.004       .  S
O16          C26   1.276       .  A
O17         Cu23   2.032       .  S
O17          C27   1.280       .  A
O18         Cu23   2.036       .  S
O18          C28   1.282       .  A
O19         Cu24   1.974       .  S
O19          C28   1.273       .  A
O20         Cu24   1.957       .  S
O20          C27   1.271       .  A
O21         Cu24   2.043       .  S
O21          C26   1.283       .  A
O22         Cu24   2.049       .  S
O22          C25   1.283       .  A
Cu23        Cu24   2.366       .  S
C25         C629   1.506       .  S
C26         C730   1.497       .  S
C27         C605   1.465       .  S
C28         C581   1.491       .  S
O29         Cu37   1.958       .  S
O29          C39   1.271       .  A
O30         Cu37   1.964       .  S
O30          C40   1.272       .  A
O31         Cu37   2.064       .  S
O31          C41   1.286       .  A
O32         Cu37   2.060       .  S
O32          C42   1.284       .  A
O33         Cu38   1.998       .  S
O33          C42   1.277       .  A
O34         Cu38   2.006       .  S
O34          C41   1.277       .  A
O35         Cu38   2.033       .  S
O35          C40   1.281       .  A
O36         Cu38   2.029       .  S
O36          C39   1.280       .  A
Cu37        Cu38   2.366       .  S
C39         C682   1.468       .  S
C40         C701   1.481       .  S
C41         C533   1.509       .  S
C42         C562   1.503       .  S
O43         Cu51   1.997       .  S
O43          C53   1.276       .  A
O44         Cu51   2.009       .  S
O44          C54   1.277       .  A
O45         Cu51   2.031       .  S
O45          C55   1.281       .  A
O46         Cu51   2.022       .  S
O46          C56   1.280       .  A
O47         Cu52   1.966       .  S
O47          C56   1.271       .  A
O48         Cu52   1.977       .  S
O48          C55   1.274       .  A
O49         Cu52   2.062       .  S
O49          C54   1.285       .  A
O50         Cu52   2.064       .  S
O50          C53   1.285       .  A
Cu51        Cu52   2.367       .  S
C53         C557   1.496       .  S
C54         C509   1.509       .  S
C55         C586   1.480       .  S
C56         C610   1.469       .  S
O57         Cu65   1.994       .  S
O57          C67   1.276       .  A
O58         Cu65   1.980       .  S
O58          C68   1.274       .  A
O59         Cu65   2.035       .  S
O59          C69   1.281       .  A
O60         Cu65   2.040       .  S
O60          C70   1.282       .  A
O61         Cu66   2.012       .  S
O61          C70   1.278       .  A
O62         Cu66   2.000       .  S
O62          C69   1.277       .  A
O63         Cu66   2.023       .  S
O63          C68   1.280       .  A
O64         Cu66   2.025       .  S
O64          C67   1.280       .  A
Cu65        Cu66   2.368       .  S
C67         C442   1.485       .  S
C68         C461   1.473       .  S
C69         C485   1.488       .  S
C70         C634   1.506       .  S
O71         Cu79   1.993       .  S
O71          C81   1.276       .  A
O72         Cu79   1.996       .  S
O72          C82   1.275       .  A
O73         Cu79   2.030       .  S
O73          C83   1.281       .  A
O74         Cu79   2.030       .  S
O74          C84   1.280       .  A
O75         Cu80   1.973       .  S
O75          C84   1.272       .  A
O76         Cu80   1.989       .  S
O76          C83   1.275       .  A
O77         Cu80   2.046       .  S
O77          C82   1.284       .  A
O78         Cu80   2.040       .  S
O78          C81   1.282       .  A
Cu79        Cu80   2.369       .  S
C81         C490   1.490       .  S
C82         C413   1.500       .  S
C83         C389   1.484       .  S
C84         C365   1.468       .  S
O85         Cu93   2.009       .  S
O85          C95   1.278       .  A
O86         Cu93   2.009       .  S
O86          C96   1.277       .  A
O87         Cu93   2.031       .  S
O87          C97   1.281       .  A
O88         Cu93   2.035       .  S
O88          C98   1.282       .  A
O89         Cu94   1.989       .  S
O89          C98   1.275       .  A
O90         Cu94   1.967       .  S
O90          C97   1.272       .  A
O91         Cu94   2.049       .  S
O91          C96   1.283       .  A
O92         Cu94   2.059       .  S
O92          C95   1.285       .  A
Cu93        Cu94   2.366       .  S
C95         C514   1.512       .  S
C96         C341   1.494       .  S
C97         C466   1.467       .  S
C98         C437   1.496       .  S
O99        Cu107   1.998       .  S
O99         C109   1.276       .  A
O100       Cu107   2.006       .  S
O100        C110   1.276       .  A
O101       Cu107   2.030       .  S
O101        C111   1.281       .  A
O102       Cu107   2.030       .  S
O102        C112   1.280       .  A
O103       Cu108   1.972       .  S
O103        C112   1.273       .  A
O104       Cu108   1.989       .  S
O104        C111   1.276       .  A
O105       Cu108   2.057       .  S
O105        C110   1.284       .  A
O106       Cu108   2.053       .  S
O106        C109   1.283       .  A
Cu107      Cu108   2.366       .  S
C109        C346   1.492       .  S
C110        C317   1.504       .  S
C111        C394   1.495       .  S
C112        C370   1.473       .  S
O113       Cu121   2.011       .  S
O113        C123   1.278       .  A
O114       Cu121   1.996       .  S
O114        C124   1.275       .  A
O115       Cu121   2.037       .  S
O115        C125   1.282       .  A
O116       Cu121   2.043       .  S
O116        C126   1.283       .  A
O117       Cu122   1.981       .  S
O117        C126   1.274       .  A
O118       Cu122   1.963       .  S
O118        C125   1.270       .  A
O119       Cu122   2.061       .  S
O119        C124   1.285       .  A
O120       Cu122   2.056       .  S
O120        C123   1.284       .  A
Cu121      Cu122   2.365       .  S
C123        C538   1.509       .  S
C124        C298   1.497       .  S
C125        C269   1.468       .  S
C126        C245   1.496       .  S
O127       Cu135   1.956       .  S
O127        C137   1.271       .  A
O128       Cu135   1.978       .  S
O128        C138   1.274       .  A
O129       Cu135   2.061       .  S
O129        C139   1.285       .  A
O130       Cu135   2.059       .  S
O130        C140   1.285       .  A
O131       Cu136   1.997       .  S
O131        C140   1.276       .  A
O132       Cu136   1.999       .  S
O132        C139   1.275       .  A
O133       Cu136   2.030       .  S
O133        C138   1.281       .  A
O134       Cu136   2.026       .  S
O134        C137   1.280       .  A
Cu135      Cu136   2.367       .  S
C137        C202   1.467       .  S
C138        C226   1.484       .  S
C139        C322   1.502       .  S
C140        C293   1.500       .  S
O141       Cu149   1.981       .  S
O141        C151   1.274       .  A
O142       Cu149   1.968       .  S
O142        C152   1.273       .  A
O143       Cu149   2.053       .  S
O143        C153   1.283       .  A
O144       Cu149   2.053       .  S
O144        C154   1.284       .  A
O145       Cu150   2.017       .  S
O145        C154   1.278       .  A
O146       Cu150   2.009       .  S
O146        C153   1.277       .  A
O147       Cu150   2.035       .  S
O147        C152   1.281       .  A
O148       Cu150   2.047       .  S
O148        C151   1.283       .  A
Cu149      Cu150   2.365       .  S
C151        C250   1.490       .  S
C152        C274   1.477       .  S
C153        C178   1.491       .  S
C154        C658   1.512       .  S
O155       Cu163   1.989       .  S
O155        C165   1.274       .  A
O156       Cu163   1.987       .  S
O156        C166   1.275       .  A
O157       Cu163   2.018       .  S
O157        C167   1.279       .  A
O158       Cu163   2.024       .  S
O158        C168   1.281       .  A
O159       Cu164   1.978       .  S
O159        C168   1.273       .  A
O160       Cu164   1.970       .  S
O160        C167   1.272       .  A
O161       Cu164   2.064       .  S
O161        C166   1.285       .  A
O162       Cu164   2.061       .  S
O162        C165   1.286       .  A
Cu163      Cu164   2.369       .  S
C165        C418   1.503       .  S
C166        C173   1.494       .  S
C167        C197   1.466       .  S
C168        C221   1.477       .  S
C169        C170   1.409       .  A
C169        C174   1.399       .  A
C169        C183   1.444       .  S
C170        C175   1.497       .  S
C170        C171   1.409       .  A
C171        C172   1.414       .  A
C171        H190   1.084       .  S
C172        C173   1.414       .  A
C172        C184   1.443       .  S
C173        C174   1.407       .  A
C174        H189   1.085       .  S
C175        C176   1.402       .  A
C175        C180   1.414       .  A
C176        C177   1.404       .  A
C176        H191   1.085       .  S
C177        C178   1.416       .  A
C177        C181   1.444       .  S
C178        C179   1.405       .  A
C179        C180   1.411       .  A
C179        H192   1.084       .  S
C180        C182   1.443       .  S
C181        N185   1.157       .  T
C182        N186   1.157       .  T
C183        N188   1.157       .  T
C184        N187   1.157       .  T
C193        C194   1.407       .  A
C193        C198   1.394       .  A
C193        C207   1.444       .  S
C194        C199   1.478   1_545  S
C194        C195   1.407       .  A
C195        C196   1.398       .  A
C195        H214   1.085       .  S
C196        C197   1.407       .  A
C196        C208   1.444       .  S
C197        C198   1.404       .  A
C198        H213   1.085       .  S
C199        C200   1.406       .  A
C199        C204   1.408       .  A
C200        C201   1.400       .  A
C200        H215   1.084       .  S
C201        C202   1.408       .  A
C201        C205   1.444       .  S
C202        C203   1.404       .  A
C203        C204   1.392       .  A
C203        H216   1.085       .  S
C204        C206   1.445   1_565  S
C205        N209   1.157       .  T
C206        N210   1.157       .  T
C207        N212   1.157       .  T
C208        N211   1.157       .  T
C217        C218   1.406       .  A
C217        C222   1.398       .  A
C217        C231   1.445       .  S
C218        C223   1.475   1_655  S
C218        C219   1.401       .  A
C219        C220   1.400       .  A
C219        H238   1.085       .  S
C220        C221   1.412       .  A
C220        C232   1.444       .  S
C221        C222   1.407       .  A
C222        H237   1.085       .  S
C223        C224   1.401       .  A
C223        C228   1.404       .  A
C224        C225   1.400       .  A
C224        H239   1.085       .  S
C225        C226   1.414       .  A
C225        C229   1.442       .  S
C226        C227   1.410       .  A
C227        C228   1.398       .  A
C227        H240   1.084       .  S
C228        C230   1.444       .  S
C229        N233   1.157       .  T
C230        N234   1.157   1_455  T
C231        N236   1.157   1_655  T
C232        N235   1.157       .  T
C241        C242   1.405       .  A
C241        C246   1.398   1_545  A
C241        C255   1.444       .  S
C242        C247   1.487       .  S
C242        C243   1.405   1_545  A
C243        C244   1.407       .  A
C243        H262   1.085       .  S
C244        C245   1.417       .  A
C244        C256   1.443       .  S
C245        C246   1.412       .  A
C246        H261   1.084       .  S
C247        C248   1.405       .  A
C247        C252   1.406       .  A
C248        C249   1.405       .  A
C248        H263   1.085       .  S
C249        C250   1.414       .  A
C249        C253   1.443       .  S
C250        C251   1.410       .  A
C251        C252   1.400       .  A
C251        H264   1.085       .  S
C252        C254   1.444       .  S
C253        N257   1.157       .  T
C254        N258   1.157       .  T
C255        N260   1.157       .  T
C256        N259   1.157       .  T
C265        C266   1.412       .  A
C265        C270   1.396       .  A
C265        C279   1.445       .  S
C266        C271   1.484   1_455  S
C266        C267   1.406       .  A
C267        C268   1.402       .  A
C267        H286   1.085       .  S
C268        C269   1.410       .  A
C268        C280   1.444       .  S
C269        C270   1.402       .  A
C270        H285   1.085       .  S
C271        C272   1.397       .  A
C271        C276   1.415       .  A
C272        C273   1.393       .  A
C272        H287   1.085   1_655  S
C273        C274   1.416       .  A
C273        C277   1.445       .  S
C274        C275   1.403       .  A
C275        C276   1.404       .  A
C275        H288   1.084       .  S
C276        C278   1.444       .  S
C277        N281   1.157       .  T
C278        N282   1.157       .  T
C279        N284   1.157   1_455  T
C280        N283   1.157       .  T
C289        C290   1.412       .  A
C289        C294   1.412       .  A
C289        C303   1.442       .  S
C290        C295   1.496       .  S
C290        C291   1.400       .  A
C291        C292   1.402       .  A
C291        H310   1.085       .  S
C292        C293   1.419       .  A
C292        C304   1.444       .  S
C293        C294   1.410       .  A
C294        H309   1.084       .  S
C295        C296   1.402       .  A
C295        C300   1.412       .  A
C296        C297   1.403       .  A
C296        H311   1.085       .  S
C297        C298   1.418       .  A
C297        C301   1.445       .  S
C298        C299   1.408       .  A
C299        C300   1.411       .  A
C299        H312   1.084       .  S
C300        C302   1.442       .  S
C301        N305   1.157       .  T
C302        N306   1.157       .  T
C303        N308   1.157       .  T
C304        N307   1.157       .  T
C313        C314   1.415       .  A
C313        C318   1.411       .  A
C313        C327   1.443       .  S
C314        C319   1.502       .  S
C314        C315   1.402       .  A
C315        C316   1.405       .  A
C315        H334   1.086       .  S
C316        C317   1.421       .  A
C316        C328   1.444       .  S
C317        C318   1.409       .  A
C318        H333   1.085       .  S
C319        C320   1.403       .  A
C319        C324   1.414       .  A
C320        C321   1.405       .  A
C320        H335   1.086       .  S
C321        C322   1.421       .  A
C321        C325   1.445       .  S
C322        C323   1.408       .  A
C323        C324   1.410       .  A
C323        H336   1.085       .  S
C324        C326   1.443       .  S
C325        N329   1.157       .  T
C326        N330   1.157       .  T
C327        N332   1.157       .  T
C328        N331   1.157       .  T
C337        C338   1.412       .  A
C337        C342   1.409       .  A
C337        C351   1.443       .  S
C338        C343   1.495       .  S
C338        C339   1.403       .  A
C339        C340   1.404       .  A
C339        H358   1.086       .  S
C340        C341   1.416       .  A
C340        C352   1.444       .  S
C341        C342   1.408       .  A
C342        H357   1.085       .  S
C343        C344   1.402       .  A
C343        C348   1.412       .  A
C344        C345   1.403       .  A
C344        H359   1.085       .  S
C345        C346   1.416       .  A
C345        C349   1.445       .  S
C346        C347   1.407       .  A
C347        C348   1.410       .  A
C347        H360   1.085       .  S
C348        C350   1.443       .  S
C349        N353   1.157       .  T
C350        N354   1.157       .  T
C351        N356   1.157       .  T
C352        N355   1.157       .  T
C361        C362   1.408       .  A
C361        C366   1.398       .  A
C361        C375   1.444       .  S
C362        C367   1.482       .  S
C362        C363   1.406       .  A
C363        C364   1.399       .  A
C363        H382   1.085       .  S
C364        C365   1.407       .  A
C364        C376   1.443       .  S
C365        C366   1.404       .  A
C366        H381   1.085       .  S
C367        C368   1.408   1_545  A
C367        C372   1.407       .  A
C368        C369   1.403       .  A
C368        H383   1.084   1_565  S
C369        C370   1.408       .  A
C369        C373   1.443       .  S
C370        C371   1.405       .  A
C371        C372   1.394   1_565  A
C371        H384   1.085       .  S
C372        C374   1.444       .  S
C373        N377   1.157       .  T
C374        N378   1.157       .  T
C375        N380   1.157       .  T
C376        N379   1.157       .  T
C385        C386   1.408       .  A
C385        C390   1.400       .  A
C385        C399   1.444       .  S
C386        C391   1.485       .  S
C386        C387   1.404       .  A
C387        C388   1.402       .  A
C387        H406   1.085       .  S
C388        C389   1.413       .  A
C388        C400   1.443       .  S
C389        C390   1.408       .  A
C390        H405   1.085       .  S
C391        C392   1.403       .  A
C391        C396   1.406       .  A
C392        C393   1.404       .  A
C392        H407   1.085       .  S
C393        C394   1.418       .  A
C393        C397   1.443       .  S
C394        C395   1.411       .  A
C395        C396   1.399       .  A
C395        H408   1.084       .  S
C396        C398   1.445       .  S
C397        N401   1.157       .  T
C398        N402   1.157       .  T
C399        N404   1.157       .  T
C400        N403   1.157       .  T
C409        C410   1.414       .  A
C409        C414   1.407       .  A
C409        C423   1.443       .  S
C410        C415   1.498       .  S
C410        C411   1.401       .  A
C411        C412   1.403       .  A
C411        H430   1.086       .  S
C412        C413   1.423       .  A
C412        C424   1.444       .  S
C413        C414   1.407       .  A
C414        H429   1.085       .  S
C415        C416   1.400       .  A
C415        C420   1.414       .  A
C416        C417   1.402       .  A
C416        H431   1.086       .  S
C417        C418   1.424       .  A
C417        C421   1.445       .  S
C418        C419   1.408       .  A
C419        C420   1.408       .  A
C419        H432   1.085       .  S
C420        C422   1.443       .  S
C421        N425   1.157       .  T
C422        N426   1.157       .  T
C423        N428   1.157       .  T
C424        N427   1.158       .  T
C433        C434   1.406       .  A
C433        C438   1.400   1_545  A
C433        C447   1.444       .  S
C434        C439   1.488       .  S
C434        C435   1.404       .  A
C435        C436   1.404   1_545  A
C435        H454   1.085       .  S
C436        C437   1.417       .  A
C436        C448   1.443       .  S
C437        C438   1.412       .  A
C438        H453   1.084       .  S
C439        C440   1.404       .  A
C439        C444   1.409       .  A
C440        C441   1.403       .  A
C440        H455   1.085       .  S
C441        C442   1.415       .  A
C441        C445   1.444       .  S
C442        C443   1.406       .  A
C443        C444   1.400       .  A
C443        H456   1.085       .  S
C444        C446   1.444       .  S
C445        N449   1.157       .  T
C446        N450   1.157       .  T
C447        N452   1.157       .  T
C448        N451   1.157       .  T
C457        C458   1.407       .  A
C457        C462   1.397       .  A
C457        C471   1.444       .  S
C458        C463   1.480       .  S
C458        C459   1.406       .  A
C459        C460   1.400       .  A
C459        H478   1.085       .  S
C460        C461   1.408       .  A
C460        C472   1.444       .  S
C461        C462   1.406       .  A
C462        H477   1.085       .  S
C463        C464   1.405       .  A
C463        C468   1.409       .  A
C464        C465   1.401       .  A
C464        H479   1.087       .  S
C465        C466   1.409       .  A
C465        C469   1.444       .  S
C466        C467   1.403       .  A
C467        C468   1.396       .  A
C467        H480   1.087       .  S
C468        C470   1.444       .  S
C469        N473   1.157       .  T
C470        N474   1.157       .  T
C471        N476   1.157       .  T
C472        N475   1.157       .  T
C481        C482   1.410       .  A
C481        C486   1.399       .  A
C481        C495   1.444       .  S
C482        C487   1.489       .  S
C482        C483   1.403       .  A
C483        C484   1.408       .  A
C483        H502   1.085       .  S
C484        C485   1.416       .  A
C484        C496   1.443       .  S
C485        C486   1.405       .  A
C486        H501   1.085       .  S
C487        C488   1.403       .  A
C487        C492   1.410       .  A
C488        C489   1.408       .  A
C488        H503   1.085       .  S
C489        C490   1.417       .  A
C489        C493   1.443       .  S
C490        C491   1.406       .  A
C491        C492   1.399       .  A
C491        H504   1.085       .  S
C492        C494   1.445       .  S
C493        N497   1.157       .  T
C494        N498   1.157       .  T
C495        N500   1.157       .  T
C496        N499   1.157       .  T
C505        C506   1.409       .  A
C505        C510   1.406       .  A
C505        C519   1.444       .  S
C506        C511   1.502       .  S
C506        C507   1.406       .  A
C507        C508   1.412       .  A
C507        H526   1.084       .  S
C508        C509   1.419       .  A
C508        C520   1.443       .  S
C509        C510   1.412       .  A
C510        H525   1.084       .  S
C511        C512   1.406       .  A
C511        C516   1.408       .  A
C512        C513   1.413       .  A
C512        H527   1.084       .  S
C513        C514   1.421       .  A
C513        C517   1.443       .  S
C514        C515   1.413       .  A
C515        C516   1.406       .  A
C515        H528   1.084       .  S
C516        C518   1.444       .  S
C517        N521   1.157       .  T
C518        N522   1.157       .  T
C519        N524   1.157       .  T
C520        N523   1.157       .  T
C529        C530   1.411       .  A
C529        C534   1.405       .  A
C529        C543   1.444       .  S
C530        C535   1.508       .  S
C530        C531   1.409       .  A
C531        C532   1.413       .  A
C531        H550   1.084       .  S
C532        C533   1.418       .  A
C532        C544   1.443       .  S
C533        C534   1.412       .  A
C534        H549   1.084       .  S
C535        C536   1.409       .  A
C535        C540   1.412       .  A
C536        C537   1.411       .  A
C536        H551   1.084       .  S
C537        C538   1.419       .  A
C537        C541   1.443       .  S
C538        C539   1.412       .  A
C539        C540   1.406       .  A
C539        H552   1.084       .  S
C540        C542   1.444       .  S
C541        N545   1.157       .  T
C542        N546   1.157       .  T
C543        N548   1.157       .  T
C544        N547   1.157       .  T
C553        C554   1.414       .  A
C553        C558   1.414       .  A
C553        C567   1.442       .  S
C554        C559   1.499   1_556  S
C554        C555   1.401       .  A
C555        C556   1.401       .  A
C555        H574   1.085       .  S
C556        C557   1.417       .  A
C556        C568   1.445       .  S
C557        C558   1.408       .  A
C558        H573   1.084       .  S
C559        C560   1.407       .  A
C559        C564   1.410       .  A
C560        C561   1.414       .  A
C560        H575   1.084       .  S
C561        C562   1.418       .  A
C561        C565   1.442       .  S
C562        C563   1.409       .  A
C563        C564   1.400       .  A
C563        H576   1.085       .  S
C564        C566   1.445       .  S
C565        N569   1.157       .  T
C566        N570   1.157   1_554  T
C567        N572   1.157       .  T
C568        N571   1.157       .  T
C577        C578   1.403       .  A
C577        C582   1.397   1_455  A
C577        C591   1.444       .  S
C578        C583   1.479       .  S
C578        C579   1.403       .  A
C579        C580   1.403   1_455  A
C579        H598   1.085       .  S
C580        C581   1.416       .  A
C580        C592   1.443       .  S
C581        C582   1.412       .  A
C582        H597   1.084       .  S
C583        C584   1.403       .  A
C583        C588   1.406       .  A
C584        C585   1.404       .  A
C584        H599   1.085       .  S
C585        C586   1.414       .  A
C585        C589   1.444       .  S
C586        C587   1.406       .  A
C587        C588   1.396       .  A
C587        H600   1.085       .  S
C588        C590   1.444       .  S
C589        N593   1.157       .  T
C590        N594   1.157       .  T
C591        N596   1.157       .  T
C592        N595   1.157       .  T
C601        C602   1.410       .  A
C601        C606   1.402       .  A
C601        C615   1.443       .  S
C602        C607   1.472       .  S
C602        C603   1.396       .  A
C603        C604   1.391       .  A
C603        H622   1.085       .  S
C604        C605   1.413       .  A
C604        C616   1.444       .  S
C605        C606   1.402       .  A
C606        H621   1.085       .  S
C607        C608   1.397       .  A
C607        C612   1.411       .  A
C608        C609   1.395       .  A
C608        H623   1.085       .  S
C609        C610   1.416       .  A
C609        C613   1.445       .  S
C610        C611   1.400       .  A
C611        C612   1.397       .  A
C611        H624   1.085       .  S
C612        C614   1.444       .  S
C613        N617   1.157       .  T
C614        N618   1.157       .  T
C615        N620   1.157       .  T
C616        N619   1.156       .  T
C625        C626   1.412       .  A
C625        C630   1.403       .  A
C625        C639   1.445       .  S
C626        C631   1.504       .  S
C626        C627   1.408       .  A
C627        C628   1.411       .  A
C627        H646   1.084       .  S
C628        C629   1.419       .  A
C628        C640   1.443       .  S
C629        C630   1.411       .  A
C630        H645   1.084       .  S
C631        C632   1.406       .  A
C631        C636   1.412       .  A
C632        C633   1.406       .  A
C632        H647   1.084       .  S
C633        C634   1.419       .  A
C633        C637   1.443       .  S
C634        C635   1.412       .  A
C635        C636   1.407       .  A
C635        H648   1.084       .  S
C636        C638   1.444       .  S
C637        N641   1.157       .  T
C638        N642   1.157       .  T
C639        N644   1.157       .  T
C640        N643   1.157       .  T
C649        C650   1.411       .  A
C649        C654   1.409       .  A
C649        C663   1.443       .  S
C650        C655   1.501       .  S
C650        C651   1.402       .  A
C651        C652   1.409       .  A
C651        H670   1.085       .  S
C652        C653   1.423       .  A
C652        C664   1.444       .  S
C653        C654   1.410       .  A
C654        H669   1.085       .  S
C655        C656   1.401       .  A
C655        C660   1.411       .  A
C656        C657   1.407       .  A
C656        H671   1.086       .  S
C657        C658   1.425       .  A
C657        C661   1.444       .  S
C658        C659   1.411       .  A
C659        C660   1.410       .  A
C659        H672   1.085       .  S
C660        C662   1.443       .  S
C661        N665   1.157       .  T
C662        N666   1.157       .  T
C663        N668   1.157       .  T
C664        N667   1.157       .  T
C673        C674   1.412       .  A
C673        C678   1.395       .  A
C673        C687   1.445   1_655  S
C674        C679   1.479   1_655  S
C674        C675   1.404       .  A
C675        C676   1.400       .  A
C675        H694   1.085       .  S
C676        C677   1.409       .  A
C676        C688   1.444       .  S
C677        C678   1.400       .  A
C678        H693   1.085       .  S
C679        C680   1.398       .  A
C679        C684   1.414       .  A
C680        C681   1.393       .  A
C680        H695   1.085       .  S
C681        C682   1.414       .  A
C681        C685   1.446       .  S
C682        C683   1.400       .  A
C683        C684   1.400       .  A
C683        H696   1.085       .  S
C684        C686   1.444       .  S
C685        N689   1.157       .  T
C686        N690   1.157       .  T
C687        N692   1.157       .  T
C688        N691   1.157       .  T
C697        C698   1.406       .  A
C697        C702   1.393       .  A
C697        C711   1.445       .  S
C698        C703   1.479       .  S
C698        C699   1.404       .  A
C699        C700   1.402       .  A
C699        H718   1.085       .  S
C700        C701   1.414       .  A
C700        C712   1.443       .  S
C701        C702   1.408       .  A
C702        H717   1.085       .  S
C703        C704   1.403       .  A
C703        C708   1.405       .  A
C704        C705   1.401       .  A
C704        H719   1.085       .  S
C705        C706   1.417       .  A
C705        C709   1.444       .  S
C706        C707   1.410       .  A
C707        C708   1.395       .  A
C707        H720   1.084       .  S
C708        C710   1.445       .  S
C709        N713   1.157       .  T
C710        N714   1.157       .  T
C711        N716   1.157       .  T
C712        N715   1.157       .  T
C721        C722   1.411       .  A
C721        C726   1.406       .  A
C721        C735   1.443       .  S
C722        C727   1.491   1_554  S
C722        C723   1.403       .  A
C723        C724   1.405       .  A
C723        H742   1.085       .  S
C724        C725   1.414       .  A
C724        C736   1.444       .  S
C725        C726   1.404       .  A
C726        H741   1.085       .  S
C727        C728   1.401       .  A
C727        C732   1.408       .  A
C728        C729   1.404       .  A
C728        H743   1.086   1_556  S
C729        C730   1.420       .  A
C729        C733   1.445       .  S
C730        C731   1.408       .  A
C731        C732   1.406       .  A
C731        H744   1.083       .  S
C732        C734   1.442       .  S
C733        N737   1.158       .  T
C734        N738   1.157       .  T
C735        N740   1.157       .  T
C736        N739   1.157       .  T
