geometry optimzed in LAMMPS
_audit_creation_date              2020-12-01 
_audit_creation_method            'lammps2cif' 
_symmetry_space_group_name_H-M    'P1' 
_symmetry_Int_Tables_number       1 
_symmetry_cell_setting            triclinic 
loop_ 
_symmetry_equiv_pos_as_xyz 
  x,y,z 
_cell_length_a                    88.86435581 
_cell_length_b                    88.92200399862051 
_cell_length_c                    27.97106628224715 
_cell_angle_alpha                 90.15740903754356 
_cell_angle_beta                  90.23791800221723 
_cell_angle_gamma                 89.99149958427553 
loop_ 
_atom_site_label 
_atom_site_type_symbol 
_atom_site_fract_x 
_atom_site_fract_y 
_atom_site_fract_z 
_atom_site_charge 
O1          O  0.82993376  0.22097285  0.01645958    -0.57600
C2          C  0.82976392  0.21697742  0.15663275     0.75100
O3          O  0.80552351  0.18459339  0.03491045    -0.58700
C4          C  0.83400889  0.21340667  0.98037924     0.75000
C5          C  0.84658127  0.17491974  0.09544759     0.77400
Cd6        Cd  0.82659617  0.19925982  0.07042198     1.37500
O7          O  0.83799106  0.21916877  0.12045414    -0.57600
O8          O  0.85109050  0.18817256  0.08791989    -0.56400
C9          C  0.79524290  0.19306502  0.05082284     0.77400
O10         O  0.83257270  0.17275364  0.09090334    -0.58800
O11         O  0.81989016  0.20677776  0.15263112    -0.57200
O12         O  0.83526131  0.19940730  0.98680084    -0.57200
O13         O  0.79950185  0.20379754  0.07741700    -0.56400
O14         O  0.84124476  0.26073235  0.62359784    -0.57600
C15         C  0.83895149  0.26857938  0.47556498     0.75100
O16         O  0.80821909  0.29551047  0.56931842    -0.58700
C17         C  0.83298351  0.26452547  0.65847706     0.75000
C18         C  0.85165675  0.30547336  0.58971946     0.77400
Cd19       Cd  0.83176885  0.28072086  0.56880510     1.37500
O20         O  0.83995949  0.26058581  0.51287533    -0.57600
O21         O  0.85548336  0.29192710  0.59591507    -0.56400
C22         C  0.80005335  0.28491062  0.55348498     0.77400
O23         O  0.83881590  0.30764868  0.57128244    -0.58800
O24         O  0.83576236  0.28228563  0.48213102    -0.57200
O25         O  0.82404760  0.27531892  0.65076701    -0.57200
O26         O  0.80648729  0.27238057  0.54707249    -0.56400
O27         O  0.65232828  0.22954072  0.00463593    -0.57600
C28         C  0.65097458  0.22313440  0.86573798     0.75100
O29         O  0.67477519  0.19018770  0.98190332    -0.58700
C30         C  0.65086246  0.22241693  0.04342192     0.75000
C31         C  0.63306723  0.18301715  0.93359538     0.77400
Cd32       Cd  0.65437965  0.20666876  0.95352034     1.37500
O33         O  0.64144646  0.22434392  0.89906112    -0.57600
O34         O  0.62903183  0.19599169  0.94689357    -0.56400
C35         C  0.68544934  0.19815995  0.96609207     0.77400
O36         O  0.64709413  0.18067467  0.93157214    -0.58800
O37         O  0.66208454  0.21458422  0.87371583    -0.57200
O38         O  0.65021316  0.20826717  0.03983879    -0.57200
O39         O  0.68168454  0.20966764  0.94230392    -0.56400
O40         O  0.64948747  0.26800931  0.40395518    -0.57600
C41         C  0.64961746  0.27586731  0.54807816     0.75100
O42         O  0.68247348  0.30242970  0.46008685    -0.58700
C43         C  0.65765392  0.27155756  0.36879298     0.75000
C44         C  0.63770479  0.31229633  0.43407753     0.77400
Cd45       Cd  0.65827301  0.28826346  0.45729772     1.37500
O46         O  0.65086785  0.26765768  0.51121578    -0.57600
O47         O  0.63407528  0.29857243  0.43157313    -0.56400
C48         C  0.68963363  0.29197213  0.48089374     0.77400
O49         O  0.65090253  0.31509617  0.44896102    -0.58800
O50         O  0.65093210  0.28989394  0.54168960    -0.57200
O51         O  0.66655824  0.28247136  0.37556831    -0.57200
O52         O  0.68243857  0.28000759  0.48901474    -0.56400
O53         O  0.97913097  0.89512850  0.26482623    -0.57600
C54         C  0.97353558  0.90044699  0.40645066     0.75100
O55         O  0.94321394  0.92612558  0.30680673    -0.58700
C56         C  0.97169409  0.89499318  0.22614487     0.75000
C57         C  0.93343448  0.88177052  0.33139515     0.77400
Cd58       Cd  0.95793605  0.90259859  0.31593374     1.37500
O59         O  0.97674167  0.89195232  0.37160306    -0.57600
O60         O  0.94696478  0.87760793  0.32727550    -0.56400
C61         C  0.95442888  0.93438054  0.29716985     0.77400
O62         O  0.93098303  0.89573218  0.32692272    -0.58800
O63         O  0.96339650  0.91016026  0.39895831    -0.57200
O64         O  0.95774302  0.89764004  0.22952075    -0.57200
O65         O  0.96714587  0.92796992  0.29779351    -0.56400
O66         O  0.01865951  0.89803992  0.76481331    -0.57600
C67         C  0.02302908  0.90022876  0.90754610     0.75100
O68         O  0.06454883  0.89978974  0.85122068    -0.58700
C69         C  0.02612798  0.89980975  0.72672968     0.75000
C70         C  0.04268647  0.93728465  0.80802743     0.77400
Cd71       Cd  0.03920438  0.90543363  0.82016465     1.37500
O72         O  0.02004606  0.89284624  0.86991734    -0.57600
O73         O  0.03013597  0.93125182  0.81736762    -0.56400
C74         C  0.06411057  0.88591135  0.84133988     0.77400
O75         O  0.05392837  0.92853292  0.80672776    -0.58800
O76         O  0.03296820  0.91032051  0.90376852    -0.57200
O77         O  0.03978081  0.90349186  0.73228222    -0.57200
O78         O  0.05269276  0.88138988  0.81828999    -0.56400
O79         O  0.96988043  0.08669588  0.24162369    -0.57600
C80         C  0.96579352  0.07789342  0.09846688     0.75100
O81         O  0.93740679  0.05157414  0.19714962    -0.58700
C82         C  0.96202419  0.08544256  0.27910825     0.75000
C83         C  0.92622290  0.09716131  0.16954907     0.77400
Cd84       Cd  0.95038342  0.07638692  0.18814716     1.37500
O85         O  0.97204883  0.08252006  0.13653313    -0.57600
O86         O  0.93989509  0.10110465  0.17051990    -0.56400
C87         C  0.94932222  0.04453465  0.20838780     0.77400
O88         O  0.92350635  0.08348103  0.17891676    -0.58800
O89         O  0.95274640  0.07236326  0.10260731    -0.57200
O90         O  0.94848997  0.08140181  0.27333292    -0.57200
O91         O  0.96135676  0.05208420  0.20778859    -0.56400
O92         O  0.00957886  0.08622866  0.63467885    -0.57600
C93         C  0.01326954  0.08087418  0.77282685     0.75100
O94         O  0.04485474  0.05585509  0.72265070    -0.58700
C95         C  0.01469468  0.08074246  0.59616790     0.75000
C96         C  0.05454124  0.09664648  0.66976634     0.77400
Cd97       Cd  0.02994740  0.07628720  0.68631145     1.37500
O98         O  0.00748023  0.07473426  0.73631393    -0.57600
O99         O  0.04167796  0.10124975  0.68255666    -0.56400
C100        C  0.03724986  0.04525384  0.70434444     0.77400
O101        O  0.05618766  0.08252274  0.66759902    -0.58800
O102        O  0.02645713  0.08602031  0.76810720    -0.57200
O103        O  0.02655451  0.07299028  0.60012382    -0.57200
O104        O  0.02679539  0.04912977  0.67617226    -0.56400
O105        O  0.97179508  0.39881808  0.74785354    -0.57600
C106        C  0.96903199  0.40425237  0.60603208     0.75100
O107        O  0.92471463  0.39845939  0.68298106    -0.58700
C108        C  0.96395389  0.39928475  0.78542920     0.75000
C109        C  0.94645283  0.43795624  0.70303853     0.77400
Cd110      Cd  0.95136071  0.40614223  0.69202539     1.37500
O111        O  0.97177155  0.39615915  0.64221793    -0.57600
O112        O  0.95929804  0.43237561  0.69511995    -0.56400
C113        C  0.92758769  0.38537871  0.66763386     0.77400
O114        O  0.93553436  0.42879918  0.70396776    -0.58800
O115        O  0.95817472  0.41340513  0.61013325    -0.57200
O116        O  0.95015007  0.40216257  0.77946624    -0.57200
O117        O  0.94133013  0.38193475  0.66440024    -0.56400
O118        O  0.01318660  0.39654053  0.24646834    -0.57600
C119        C  0.01597765  0.40163481  0.10667091     0.75100
O120        O  0.05160274  0.42448102  0.21088243    -0.58700
C121        C  0.02041494  0.39818889  0.28519385     0.75000
C122        C  0.05904217  0.38313383  0.17185536     0.77400
Cd123      Cd  0.03431349  0.40332832  0.19278870     1.37500
O124        O  0.01601604  0.39110728  0.13707417    -0.57600
O125        O  0.04712713  0.37883340  0.19220914    -0.56400
C126        C  0.04156963  0.43451577  0.20635796     0.77400
O127        O  0.05959152  0.39693499  0.16114532    -0.58800
O128        O  0.02425799  0.41278157  0.11640164    -0.57200
O129        O  0.03416029  0.40154732  0.28084364    -0.57200
O130        O  0.02849068  0.42998754  0.19557346    -0.56400
O131        O  0.97495304  0.58850941  0.88174239    -0.57600
C132        C  0.97160311  0.58024529  0.73499915     0.75100
O133        O  0.93889225  0.55585971  0.80617297    -0.58700
C134        C  0.97089013  0.58108971  0.91810274     0.75000
C135        C  0.93172968  0.59790878  0.83661354     0.77400
Cd136      Cd  0.95620426  0.57692153  0.82570885     1.37500
O137        O  0.97848826  0.57673924  0.77307005    -0.57600
O138        O  0.94467915  0.60215378  0.82345676    -0.56400
C139        C  0.94877093  0.54568733  0.81040627     0.77400
O140        O  0.93014753  0.58392503  0.84311680    -0.58800
O141        O  0.95780350  0.58339379  0.73971586    -0.57200
O142        O  0.96036966  0.57176350  0.91118123    -0.57200
O143        O  0.96166002  0.55001568  0.82400666    -0.56400
O144        O  0.01657982  0.58345252  0.27586292    -0.57600
C145        C  0.02235778  0.57679779  0.41163340     0.75100
O146        O  0.05210808  0.55319766  0.28401228    -0.58700
C147        C  0.02338448  0.58403496  0.23621879     0.75000
C148        C  0.06348506  0.59441158  0.34154172     0.77400
Cd149      Cd  0.03863633  0.57426145  0.32262340     1.37500
O150        O  0.01562732  0.57582069  0.37174767    -0.57600
O151        O  0.05096106  0.59897945  0.32541415    -0.56400
C152        C  0.04442648  0.54275873  0.30229677     0.77400
O153        O  0.06469300  0.58035328  0.34756012    -0.58800
O154        O  0.03659188  0.57669829  0.41024719    -0.57200
O155        O  0.03719530  0.58068556  0.23746277    -0.57200
O156        O  0.03438567  0.54680624  0.33148220    -0.56400
O157        O  0.83341538  0.76041435  0.47215659    -0.57600
C158        C  0.83104118  0.76811722  0.33119841     0.75100
O159        O  0.80954248  0.79956063  0.45398406    -0.58700
C160        C  0.83561197  0.76737037  0.51108403     0.75000
C161        C  0.85334356  0.80453940  0.40454089     0.77400
Cd162      Cd  0.82966240  0.78307696  0.42232066     1.37500
O163        O  0.83247358  0.76086236  0.36991552    -0.57600
O164        O  0.85599775  0.79060310  0.40805916    -0.56400
C165        C  0.79868004  0.79170684  0.43863456     0.77400
O166        O  0.83981049  0.80855498  0.41069804    -0.58800
O167        O  0.82836557  0.78205340  0.33498523    -0.57200
O168        O  0.83596883  0.78155016  0.50815071    -0.57200
O169        O  0.80212875  0.78037839  0.41358160    -0.56400
O170        O  0.83166688  0.72244286  0.97305040    -0.57600
C171        C  0.83314143  0.71556593  0.83277188     0.75100
O172        O  0.83791811  0.67411732  0.89551619    -0.58700
C173        C  0.83637463  0.71592349  0.01042082     0.75000
C174        C  0.79920044  0.69289915  0.94664055     0.77400
Cd175      Cd  0.83029980  0.69965705  0.92275300     1.37500
O176        O  0.84071887  0.71937399  0.86928321    -0.57600
O177        O  0.80318161  0.70472105  0.92511324    -0.56400
C178        C  0.85165009  0.67559917  0.90703599     0.77400
O179        O  0.80960557  0.68351888  0.95493990    -0.58800
O180        O  0.82431822  0.70454054  0.83823695    -0.57200
O181        O  0.83931032  0.70207887  0.00602704    -0.57200
O182        O  0.85523488  0.68802040  0.92601987    -0.56400
O183        O  0.65397300  0.76395035  0.52411204    -0.57600
C184        C  0.65810239  0.76758911  0.66098344     0.75100
O185        O  0.68211859  0.80184393  0.54846305    -0.58700
C186        C  0.65415259  0.77109316  0.48498427     0.75000
C187        C  0.64107984  0.81079679  0.59854776     0.77400
Cd188      Cd  0.66084627  0.78576471  0.57522330     1.37500
O189        O  0.64832842  0.76703153  0.62790096    -0.57600
O190        O  0.63763337  0.80103497  0.56740994    -0.56400
C191        C  0.69214768  0.79187692  0.55416208     0.77400
O192        O  0.65385246  0.80926402  0.61807844    -0.58800
O193        O  0.66916739  0.77623053  0.65364450    -0.57200
O194        O  0.65664690  0.78505523  0.48814493    -0.57200
O195        O  0.68774029  0.77950043  0.57125390    -0.56400
O196        O  0.65144093  0.72235919  0.12869535    -0.57600
C197        C  0.65594174  0.71549938  0.98180702     0.75100
O198        O  0.68195887  0.68548988  0.05267724    -0.58700
C199        C  0.65971320  0.71896971  0.16411977     0.75000
C200        C  0.63872754  0.67913995  0.09837114     0.77400
Cd201      Cd  0.66077788  0.70205509  0.07544723     1.37500
O202        O  0.65578088  0.72347127  0.01939648    -0.57600
O203        O  0.63521963  0.69271662  0.09101314    -0.56400
C204        C  0.69219173  0.69496625  0.06227336     0.77400
O205        O  0.65249123  0.67586766  0.09334622    -0.58800
O206        O  0.65730546  0.70151020  0.98808974    -0.57200
O207        O  0.66861943  0.70803029  0.15796578    -0.57200
O208        O  0.68786782  0.70734841  0.07991419    -0.56400
O209        O  0.34347751  0.75709400  0.10974329    -0.57600
C210        C  0.33992323  0.76124975  0.96451657     0.75100
O211        O  0.30863787  0.78998215  0.06839592    -0.58700
C212        C  0.33401428  0.75917914  0.14286123     0.75000
C213        C  0.35281998  0.80092460  0.07224890     0.77400
Cd214      Cd  0.33255457  0.77603494  0.05420377     1.37500
O215        O  0.33701228  0.75395370  0.00216983    -0.57600
O216        O  0.35605420  0.78742378  0.08184288    -0.56400
C217        C  0.30073401  0.78166105  0.04137299     0.77400
O218        O  0.34027006  0.80305814  0.05172213    -0.58800
O219        O  0.34038062  0.77542015  0.96920634    -0.57200
O220        O  0.32372789  0.76857645  0.13387376    -0.57200
O221        O  0.30764880  0.77118919  0.02014744    -0.56400
O222        O  0.34703877  0.70801026  0.61390967    -0.57600
C223        C  0.33891561  0.70585773  0.46200544     0.75100
O224        O  0.33590305  0.66992899  0.59920991    -0.58700
C225        C  0.33607893  0.71259428  0.63872357     0.75000
C226        C  0.30002556  0.68964393  0.53700400     0.77400
Cd227      Cd  0.33165196  0.69361821  0.55501685     1.37500
O228        O  0.34015495  0.71350069  0.50012207    -0.57600
O229        O  0.30659632  0.70222767  0.53566549    -0.56400
C230        C  0.34894054  0.66752239  0.58276110     0.77400
O231        O  0.30808955  0.67840524  0.54811274    -0.58800
O232        O  0.33555379  0.69214038  0.46739778    -0.57200
O233        O  0.32312958  0.70899141  0.62380312    -0.57200
O234        O  0.35346138  0.67656640  0.55100711    -0.56400
O235        O  0.14596655  0.76185279  0.91446019    -0.57600
C236        C  0.14919637  0.76986019  0.06263744     0.75100
O237        O  0.18100411  0.79533104  0.96555115    -0.58700
C238        C  0.15514802  0.76417621  0.88074837     0.75000
C239        C  0.13642921  0.80575639  0.95092803     0.77400
Cd240      Cd  0.15685516  0.78120299  0.96930271     1.37500
O241        O  0.14958443  0.76133706  0.02623828    -0.57600
O242        O  0.13229068  0.79216677  0.95094198    -0.56400
C243        C  0.18869639  0.78502593  0.98523292     0.77400
O244        O  0.15019881  0.80810257  0.96022391    -0.58800
O245        O  0.15157477  0.78366110  0.05496647    -0.57200
O246        O  0.16522186  0.77385458  0.88918043    -0.57200
O247        O  0.18164226  0.77324131  0.99686157    -0.56400
O248        O  0.14821384  0.72041983  0.52068845    -0.57600
C249        C  0.15198421  0.71891080  0.38256602     0.75100
O250        O  0.17939081  0.68485149  0.47847249    -0.58700
C251        C  0.15007425  0.71288624  0.55865069     0.75000
C252        C  0.13816208  0.67433146  0.44032633     0.77400
Cd253      Cd  0.15643360  0.70021093  0.46576487     1.37500
O254        O  0.14140365  0.71647190  0.41171597    -0.57600
O255        O  0.13429427  0.68342293  0.47292084    -0.56400
C256        C  0.18823808  0.69602315  0.48077155     0.77400
O257        O  0.15081179  0.67678327  0.42124522    -0.58800
O258        O  0.16457891  0.71315328  0.39296180    -0.57200
O259        O  0.15404810  0.69934734  0.55304093    -0.57200
O260        O  0.18235546  0.70881848  0.47467952    -0.56400
O261        O  0.33691967  0.21856081  0.37536652    -0.57600
C262        C  0.33039830  0.21741530  0.51320752     0.75100
O263        O  0.30715188  0.18667532  0.47927296    -0.58700
C264        C  0.32934509  0.21452306  0.33902726     0.75000
C265        C  0.34927130  0.17425070  0.41821040     0.77400
Cd266      Cd  0.32716543  0.19843542  0.42927996     1.37500
O267        O  0.32255831  0.22140484  0.47754757    -0.57600
O268        O  0.35268173  0.18730980  0.43246933    -0.56400
C269        C  0.29644209  0.18990729  0.45114650     0.77400
O270        O  0.33542011  0.17212657  0.40962174    -0.58800
O271        O  0.33765626  0.20525923  0.50850456    -0.57200
O272        O  0.32093596  0.20321813  0.34473593    -0.57200
O273        O  0.30020760  0.19580346  0.41190486    -0.56400
O274        O  0.32964045  0.26015384  0.98118728    -0.57600
C275        C  0.32772942  0.26759319  0.83813207     0.75100
O276        O  0.30550744  0.29823865  0.96348862    -0.58700
C277        C  0.33305526  0.26725951  0.01900874     0.75000
C278        C  0.34812565  0.30590074  0.90853718     0.77400
Cd279      Cd  0.32625779  0.28278087  0.92976986     1.37500
O280        O  0.33258977  0.26141913  0.87599011    -0.57600
O281        O  0.35175355  0.29225117  0.91382641    -0.56400
C282        C  0.29494090  0.29006353  0.94772376     0.77400
O283        O  0.33439593  0.30905458  0.91517297    -0.58800
O284        O  0.32201121  0.28054102  0.84315925    -0.57200
O285        O  0.33412051  0.28136105  0.01460645    -0.57200
O286        O  0.29893383  0.27898339  0.92231202    -0.56400
O287        O  0.14309740  0.21506065  0.60640197    -0.57600
C288        C  0.14702727  0.21155209  0.45668400     0.75100
O289        O  0.17721735  0.18169598  0.53621632    -0.58700
C290        C  0.15264229  0.21232659  0.63900213     0.75000
C291        C  0.13232836  0.17269916  0.56356278     0.77400
Cd292      Cd  0.15372203  0.19697609  0.54703317     1.37500
O293        O  0.14644732  0.21866188  0.49598882    -0.57600
O294        O  0.12845121  0.18523284  0.54621096    -0.56400
C295        C  0.18553034  0.19294384  0.52715251     0.77400
O296        O  0.14630810  0.17099915  0.57086449    -0.58800
O297        O  0.14980163  0.19760955  0.45986937    -0.57200
O298        O  0.16275093  0.20295007  0.62826496    -0.57200
O299        O  0.17903465  0.20558317  0.52772945    -0.56400
O300        O  0.15143290  0.25744954  0.99997839    -0.57600
C301        C  0.15081226  0.26237269  0.13401603     0.75100
O302        O  0.17423116  0.29469500  0.00574120    -0.58700
C303        C  0.14856283  0.26420177  0.96121614     0.75000
C304        C  0.13582713  0.30616410  0.07240925     0.77400
Cd305      Cd  0.15454896  0.28070635  0.04920708     1.37500
O306        O  0.13982885  0.26914201  0.11470451    -0.57600
O307        O  0.13118827  0.29529397  0.04707396    -0.56400
C308        C  0.18509037  0.29044380  0.03169627     0.77400
O309        O  0.14933907  0.30541606  0.08676662    -0.58800
O310        O  0.16326423  0.26352552  0.11256835    -0.57200
O311        O  0.14757027  0.27832998  0.96426684    -0.57200
O312        O  0.18164256  0.28251884  0.06750741    -0.56400
O313        O  0.51409713  0.59502838  0.18434465    -0.57600
C314        C  0.52398393  0.59462750  0.32799207     0.75100
O315        O  0.54929447  0.56178670  0.23471450    -0.58700
C316        C  0.51790403  0.58776514  0.14728282     0.75000
C317        C  0.55956075  0.60621901  0.21031514     0.77400
Cd318      Cd  0.53526222  0.58604352  0.23441526     1.37500
O319        O  0.51635181  0.59682845  0.29031613    -0.57600
O320        O  0.54588052  0.60944501  0.20366878    -0.56400
C321        C  0.53801404  0.55382320  0.24595608     0.77400
O322        O  0.56225227  0.59365423  0.22978254    -0.58800
O323        O  0.53696705  0.58915261  0.32187710    -0.57200
O324        O  0.52932558  0.57935353  0.15148992    -0.57200
O325        O  0.52570872  0.56081846  0.25045357    -0.56400
O326        O  0.47618193  0.58677847  0.78608315    -0.57600
C327        C  0.47369039  0.58751796  0.64758868     0.75100
O328        O  0.44091047  0.55667457  0.73818559    -0.58700
C329        C  0.46822894  0.58861635  0.82303181     0.75000
C330        C  0.42838053  0.59660793  0.70689429     0.77400
Cd331      Cd  0.45557929  0.58052333  0.73130946     1.37500
O332        O  0.47035457  0.59745511  0.67814741    -0.57600
O333        O  0.43816133  0.60205764  0.73509285    -0.56400
C334        C  0.45205313  0.54863794  0.75031502     0.77400
O335        O  0.43081022  0.58332191  0.69252757    -0.58800
O336        O  0.46903970  0.57438217  0.65655740    -0.57200
O337        O  0.45413733  0.58750556  0.81700959    -0.57200
O338        O  0.46463278  0.55524637  0.75192699    -0.56400
O339        O  0.51378553  0.40131156  0.37492248    -0.57600
C340        C  0.51947415  0.40576064  0.23844225     0.75100
O341        O  0.54879469  0.43248599  0.29211094    -0.58700
C342        C  0.51847370  0.40623866  0.41486721     0.75000
C343        C  0.55964124  0.38975887  0.34471435     0.77400
Cd344      Cd  0.53531903  0.41081226  0.32764004     1.37500
O345        O  0.51321955  0.41171605  0.27432545    -0.57600
O346        O  0.54595166  0.38589392  0.34436312    -0.56400
C347        C  0.54170974  0.44248427  0.31507992     0.77400
O348        O  0.56231095  0.40347215  0.33600206    -0.58800
O349        O  0.53286312  0.40133746  0.24458881    -0.57200
O350        O  0.53076903  0.41345815  0.41399610    -0.57200
O351        O  0.53256389  0.43777592  0.34614456    -0.56400
O352        O  0.47212775  0.39517862  0.77236610    -0.57600
C353        C  0.46695226  0.40378004  0.91700412     0.75100
O354        O  0.43754610  0.42903608  0.82371221    -0.58700
C355        C  0.46548980  0.39825020  0.73340756     0.75000
C356        C  0.42767552  0.38368031  0.83585966     0.77400
Cd357      Cd  0.45198242  0.40499904  0.82513660     1.37500
O358        O  0.47379869  0.40034847  0.87884871    -0.57600
O359        O  0.44136720  0.37981938  0.83868959    -0.56400
C360        C  0.44885275  0.43705725  0.81335454     0.77400
O361        O  0.42521501  0.39741049  0.82677819    -0.58800
O362        O  0.45336630  0.40772931  0.91227713    -0.57200
O363        O  0.45221559  0.40325736  0.73728944    -0.57200
O364        O  0.46128024  0.43024091  0.80994694    -0.56400
O365        O  0.51365490  0.89967982  0.75553291    -0.57600
C366        C  0.51801224  0.90210890  0.61650454     0.75100
O367        O  0.55196772  0.92790653  0.72914204    -0.58700
C368        C  0.52067170  0.90091668  0.79482342     0.75000
C369        C  0.56161931  0.88780524  0.68179283     0.77400
Cd370      Cd  0.53566737  0.90670151  0.70341349     1.37500
O371        O  0.52179658  0.89126009  0.64319258    -0.57600
O372        O  0.55054568  0.88323261  0.70603329    -0.56400
C373        C  0.54323813  0.93829956  0.71531809     0.77400
O374        O  0.56092868  0.90137239  0.66843802    -0.58800
O375        O  0.52196142  0.91500368  0.63099115    -0.57200
O376        O  0.53441440  0.90433771  0.79145003    -0.57200
O377        O  0.53126696  0.93409140  0.69455495    -0.56400
O378        O  0.47210399  0.89227560  0.15175360    -0.57600
C379        C  0.46597905  0.89299145  0.29632084     0.75100
O380        O  0.43674896  0.92363253  0.22206427    -0.58700
C381        C  0.46821124  0.90017379  0.11614612     0.75000
C382        C  0.42752880  0.87969607  0.17995332     0.77400
Cd383      Cd  0.45172444  0.90049665  0.20532617     1.37500
O384        O  0.47301342  0.89219069  0.25719537    -0.57600
O385        O  0.44130360  0.87660653  0.17469832    -0.56400
C386        C  0.44794301  0.93246964  0.22235645     0.77400
O387        O  0.42470207  0.89234348  0.19882193    -0.58800
O388        O  0.45208769  0.89588710  0.29272852    -0.57200
O389        O  0.45664976  0.90832463  0.12195548    -0.57200
O390        O  0.46054163  0.92655857  0.21302810    -0.56400
O391        O  0.47671611  0.07715162  0.28165909    -0.57600
C392        C  0.46897986  0.07880360  0.41969275     0.75100
O393        O  0.42757681  0.08125100  0.35336934    -0.58700
C394        C  0.47028062  0.08046788  0.24266301     0.75000
C395        C  0.44885527  0.04277012  0.31122036     0.77400
Cd396      Cd  0.45363581  0.07462572  0.32931799     1.37500
O397        O  0.47344634  0.08512392  0.38181291    -0.57600
O398        O  0.45979318  0.04786171  0.33526980    -0.56400
C399        C  0.42890041  0.09527302  0.34676547     0.77400
O400        O  0.43947513  0.05248248  0.29659356    -0.58800
O401        O  0.45753535  0.07043426  0.41529168    -0.57200
O402        O  0.45615163  0.08222205  0.24439018    -0.57200
O403        O  0.44144994  0.09954667  0.33040455    -0.56400
O404        O  0.51458125  0.08367201  0.77951897    -0.57600
C405        C  0.52169628  0.07874419  0.92071174     0.75100
O406        O  0.55341232  0.05676893  0.80516538    -0.58700
C407        C  0.52142879  0.08310406  0.73998240     0.75000
C408        C  0.55838995  0.10194364  0.84440487     0.77400
Cd409      Cd  0.53684915  0.07788287  0.82974637     1.37500
O410        O  0.51485619  0.08160171  0.88194038    -0.57600
O411        O  0.54441134  0.10443643  0.84106467    -0.56400
C412        C  0.54425076  0.04643779  0.81604584     0.77400
O413        O  0.56249405  0.08838423  0.83973333    -0.58800
O414        O  0.53550766  0.07539089  0.91717733    -0.57200
O415        O  0.53543023  0.08070557  0.74238309    -0.57200
O416        O  0.53212652  0.05063748  0.83543238    -0.56400
C417        C  0.47869865  0.08159736  0.19709321    -0.19600
C418        C  0.49167976  0.07278940  0.18879047     0.36600
C419        C  0.49859700  0.07316020  0.14375188    -0.25600
C420        C  0.49314847  0.08241659  0.10697900     0.03000
C421        C  0.48046666  0.09161002  0.11576450     0.27800
C422        C  0.47322041  0.09088586  0.16039859    -0.24700
N423        N  0.49754620  0.06310848  0.22551710    -0.82100
H424        H  0.50811512  0.06586325  0.13692250     0.10400
C425        C  0.50055705  0.08188116  0.05917026     0.03000
N426        N  0.47504164  0.10168064  0.07944536    -0.80700
H427        H  0.46331537  0.09770312  0.16672920     0.18500
C428        C  0.49177074  0.07934328  0.01804898    -0.25500
C429        C  0.49834732  0.07818692  0.97250882     0.36500
C430        C  0.51412648  0.07951024  0.96789556    -0.19600
C431        C  0.52292886  0.08181417  0.00908944    -0.24800
C432        C  0.51633581  0.08317196  0.05449423     0.27900
H433        H  0.47971912  0.07793584  0.02161775     0.13600
N434        N  0.48906485  0.07538045  0.93121679    -0.82100
H435        H  0.53502501  0.08288301  0.00576788     0.18500
N436        N  0.52560525  0.08601016  0.09580392    -0.80700
H437        H  0.47770527  0.07494950  0.94070844     0.34100
H438        H  0.49183999  0.06471184  0.91813343     0.38600
H439        H  0.53696293  0.08653617  0.08634099     0.34100
H440        H  0.52271712  0.09661231  0.10915555     0.30800
H441        H  0.46563435  0.10761991  0.09152852     0.34100
H442        H  0.48347079  0.10963425  0.07324947     0.30800
H443        H  0.48959376  0.05466109  0.23148555     0.38600
H444        H  0.50734220  0.05771025  0.21399908     0.34100
C445        C  0.47655777  0.08095712  0.46678712    -0.19600
C446        C  0.48915708  0.09055261  0.47291438     0.36600
C447        C  0.49586068  0.09193504  0.51833934    -0.25600
C448        C  0.49043556  0.08384479  0.55757903     0.03000
C449        C  0.47772434  0.07454077  0.55194464     0.27800
C450        C  0.47089244  0.07324740  0.50675082    -0.24700
N451        N  0.49517714  0.09884158  0.43330290    -0.82100
H452        H  0.50558500  0.09914898  0.52308731     0.13600
C453        C  0.49867871  0.08456198  0.60374092     0.03000
N454        N  0.47197021  0.06624443  0.59196968    -0.80700
H455        H  0.46119142  0.06597372  0.50269207     0.18500
C456        C  0.49134869  0.08986366  0.64475485    -0.25500
C457        C  0.49863731  0.08998673  0.68950434     0.36500
C458        C  0.51356890  0.08457045  0.69324514    -0.19600
C459        C  0.52099382  0.07968393  0.65169967    -0.24800
C460        C  0.51367615  0.07951738  0.60712356     0.27900
H461        H  0.47986660  0.09386973  0.64176413     0.13600
N462        N  0.49090575  0.09556562  0.73095979    -0.82100
H463        H  0.53242021  0.07549963  0.65417620     0.18500
N464        N  0.52127543  0.07389200  0.56543706    -0.80700
H465        H  0.47994106  0.09884001  0.72213658     0.34100
H466        H  0.49650875  0.10528412  0.74233694     0.38600
H467        H  0.53227654  0.07065383  0.57391004     0.34100
H468        H  0.51564724  0.06417148  0.55420131     0.30800
H469        H  0.46249016  0.06000681  0.58195227     0.34100
H470        H  0.48020484  0.05848757  0.60225554     0.30800
H471        H  0.50016349  0.09107893  0.41012431     0.38600
H472        H  0.50380678  0.10601458  0.44469834     0.34100
C473        C  0.44665904  0.94882430  0.23314455    -0.19600
C474        C  0.43427870  0.95497135  0.25823197     0.36600
C475        C  0.43398854  0.97049425  0.26860265    -0.25600
C476        C  0.44585278  0.97993142  0.25499811     0.03000
C477        C  0.45807855  0.97388890  0.22945986     0.27800
C478        C  0.45841314  0.95841969  0.21911594    -0.24700
N479        N  0.42225858  0.94544091  0.27424644    -0.82100
H480        H  0.42469085  0.97520194  0.28863312     0.13600
C481        C  0.44591327  0.99593427  0.27035536     0.03000
N482        N  0.47012669  0.98352793  0.21427507    -0.80700
H483        H  0.46791820  0.95384658  0.19977832     0.18500
C484        C  0.45656974  0.00058817  0.30427906    -0.25500
C485        C  0.45736617  0.01562743  0.31962193     0.36500
C486        C  0.44744926  0.02643682  0.29964780    -0.19600
C487        C  0.43657154  0.02163938  0.26615739    -0.24800
C488        C  0.43569487  0.00648670  0.25140004     0.27900
H489        H  0.46427409  0.99235913  0.31908604     0.13600
N490        N  0.46824646  0.01987926  0.35537237    -0.82100
H491        H  0.42891708  0.02977778  0.25066137     0.18500
N492        N  0.42464524  0.00180524  0.21676693    -0.80700
H493        H  0.47492064  0.01068881  0.36510716     0.34100
H494        H  0.46230923  0.02302382  0.38601076     0.38600
H495        H  0.41794534  0.01090678  0.20640297     0.34100
H496        H  0.43038740  0.99823047  0.18622662     0.30800
H497        H  0.47832388  0.97734930  0.19606985     0.34100
H498        H  0.46564461  0.99117277  0.18969917     0.30800
H499        H  0.42670381  0.93820420  0.30010566     0.38600
H500        H  0.41393590  0.95178213  0.29128594     0.34100
C501        C  0.54651973  0.95442867  0.72513379    -0.19600
C502        C  0.53963504  0.96613492  0.69873368     0.36600
C503        C  0.54152613  0.98115390  0.71367010    -0.25600
C504        C  0.55020412  0.98470866  0.75410688     0.03000
C505        C  0.55781998  0.97318816  0.77870618     0.27800
C506        C  0.55593387  0.95816242  0.76394429    -0.24700
N507        N  0.53062257  0.96275318  0.65728275    -0.82100
H508        H  0.53584148  0.99011442  0.69459592     0.13600
C509        C  0.55016297  0.00037343  0.77246614     0.03000
N510        N  0.56714889  0.97680191  0.81923047    -0.80700
H511        H  0.56138391  0.94928677  0.78404520     0.18500
C512        C  0.54172384  0.00371565  0.81337318    -0.25500
C513        C  0.54009339  0.01861375  0.82957319     0.36500
C514        C  0.54716550  0.03040890  0.80437480    -0.19600
C515        C  0.55618771  0.02691916  0.76467526    -0.24800
C516        C  0.55765355  0.01201757  0.74824200     0.27900
H517        H  0.53605002  0.99467483  0.83193659     0.13600
N518        N  0.53115169  0.02179710  0.87111112    -0.82100
H519        H  0.56161479  0.03591304  0.74518904     0.18500
N520        N  0.56642233  0.00867787  0.70648769    -0.80700
H521        H  0.52659577  0.01189940  0.88502920     0.34100
H522        H  0.53834762  0.02614917  0.89738330     0.38600
H523        H  0.57108708  0.01851206  0.69248528     0.34100
H524        H  0.57543330  0.00190337  0.71722787     0.30800
H525        H  0.57189236  0.96704654  0.83364945     0.34100
H526        H  0.57608863  0.98336395  0.80693388     0.30800
H527        H  0.53773319  0.95803736  0.63159880     0.38600
H528        H  0.52626531  0.97261223  0.64234486     0.34100
C529        C  0.47351618  0.89145417  0.34392166    -0.19600
C530        C  0.48934095  0.88990162  0.34899139     0.36600
C531        C  0.49584900  0.88995377  0.39503013    -0.25600
C532        C  0.48703243  0.89201063  0.43592142     0.03000
C533        C  0.47131824  0.89328552  0.43124664     0.27800
C534        C  0.46471281  0.89284268  0.38547258    -0.24700
N535        N  0.49885409  0.88880008  0.30768042    -0.82100
H536        H  0.50795846  0.88912907  0.39898996     0.13600
C537        C  0.49452803  0.89425759  0.48291428     0.03000
N538        N  0.46219074  0.89543220  0.47302398    -0.80700
H539        H  0.45262465  0.89407649  0.38226933     0.18500
C540        C  0.49550700  0.90884854  0.50160385    -0.25500
C541        C  0.50318646  0.91179684  0.54470382     0.36500
C542        C  0.50969434  0.89972983  0.57061093    -0.19600
C543        C  0.50843894  0.88504491  0.55192598    -0.24800
C544        C  0.50102196  0.88221735  0.50819583     0.27900
H545        H  0.49054030  0.91805393  0.48170930     0.13600
N546        N  0.50432584  0.92700200  0.56195410    -0.82100
H547        H  0.51343494  0.87572914  0.57117223     0.18500
N548        N  0.50011599  0.86720928  0.48919417    -0.80700
H549        H  0.49801425  0.93427933  0.54047494     0.34100
H550        H  0.51553786  0.93033524  0.55814658     0.38600
H551        H  0.50556670  0.85961883  0.51189884     0.34100
H552        H  0.48876170  0.86413056  0.48849694     0.30800
H553        H  0.45083682  0.89637743  0.46355097     0.34100
H554        H  0.46317146  0.88575941  0.49397614     0.30800
H555        H  0.49869253  0.89926383  0.29072382     0.38600
H556        H  0.51003595  0.88694869  0.31786931     0.34100
C557        C  0.51333719  0.89911694  0.84239741    -0.19600
C558        C  0.49924481  0.89194353  0.84813495     0.36600
C559        C  0.49236938  0.89181805  0.89350558    -0.25600
C560        C  0.49929415  0.89857132  0.93336974     0.03000
C561        C  0.51358730  0.90522720  0.92808151     0.27800
C562        C  0.52047075  0.90533823  0.88288158    -0.24700
N563        N  0.49196243  0.88479833  0.80811935    -0.82100
H564        H  0.48150278  0.88647692  0.89786415     0.13600
C565        C  0.49128551  0.89899199  0.98011250     0.03000
N566        N  0.52089116  0.91220106  0.96840007    -0.80700
H567        H  0.53129539  0.91079256  0.87901926     0.18500
C568        C  0.49786526  0.89229738  0.02046856    -0.25500
C569        C  0.49076146  0.89274702  0.06538970     0.36500
C570        C  0.47655300  0.89983384  0.06995926    -0.19600
C571        C  0.47006245  0.90661952  0.02942731    -0.24800
C572        C  0.47730955  0.90635850  0.98477165     0.27900
H573        H  0.50865908  0.88674714  0.01687129     0.13600
N574        N  0.49802336  0.88611878  0.10624512    -0.82100
H575        H  0.45925225  0.91216351  0.03248906     0.18500
N576        N  0.47060895  0.91368226  0.94416046    -0.80700
H577        H  0.50817618  0.88105101  0.09645563     0.34100
H578        H  0.50080866  0.89484594  0.12979886     0.38600
H579        H  0.46030750  0.91854500  0.95340643     0.34100
H580        H  0.47771327  0.92250433  0.93426308     0.30800
H581        H  0.53137279  0.91652932  0.95862992     0.34100
H582        H  0.51430733  0.92137118  0.97888988     0.30800
H583        H  0.49871785  0.87575851  0.79758184     0.38600
H584        H  0.48162698  0.88022316  0.81832592     0.34100
C585        C  0.51165324  0.40464862  0.19159692    -0.19600
C586        C  0.51626512  0.39446835  0.15562180     0.36600
C587        C  0.50877681  0.39442024  0.11122372    -0.25600
C588        C  0.49702988  0.40453845  0.10150764     0.03000
C589        C  0.49253659  0.41481497  0.13725724     0.27800
C590        C  0.49972351  0.41458601  0.18206395    -0.24700
N591        N  0.52845806  0.38418420  0.16419548    -0.82100
H592        H  0.51208307  0.38639321  0.08401268     0.13600
C593        C  0.48947519  0.40417283  0.05390461     0.03000
N594        N  0.48090663  0.42565145  0.12759680    -0.80700
H595        H  0.49628713  0.42257512  0.20922598     0.18500
C596        C  0.47377103  0.40268424  0.05148281    -0.25500
C597        C  0.46616002  0.40237975  0.00735780     0.36500
C598        C  0.47447308  0.40343814  0.96446373    -0.19600
C599        C  0.49021894  0.40461024  0.96690673    -0.24800
C600        C  0.49778715  0.40519746  0.01112191     0.27900
H601        H  0.46742095  0.40162861  0.08429158     0.13600
N602        N  0.45005454  0.40083542  0.00610442    -0.82100
H603        H  0.49663118  0.40550998  0.93417889     0.18500
N604        N  0.51384562  0.40712744  0.01276440    -0.80700
H605        H  0.44567185  0.40052708  0.04072244     0.34100
H606        H  0.44759181  0.39042789  0.99043750     0.38600
H607        H  0.51827432  0.40764409  0.97823580     0.34100
H608        H  0.51603754  0.41752767  0.02887243     0.30800
H609        H  0.47892519  0.43237293  0.15765000     0.34100
H610        H  0.48483585  0.43280974  0.10081121     0.30800
H611        H  0.52501148  0.37671356  0.19079000     0.38600
H612        H  0.53060922  0.37770489  0.13372824     0.34100
C613        C  0.51012943  0.40387902  0.46037670    -0.19600
C614        C  0.49829326  0.39329340  0.46457427     0.36600
C615        C  0.49065382  0.39185924  0.50841197    -0.25600
C616        C  0.49477529  0.40049167  0.54844380     0.03000
C617        C  0.50668798  0.41089971  0.54447339     0.27800
C618        C  0.51422324  0.41244918  0.50068659    -0.24700
N619        N  0.49423962  0.38382167  0.42483407    -0.82100
H620        H  0.48164493  0.38372408  0.51175267     0.13600
C621        C  0.48680158  0.39840158  0.59473523     0.03000
N622        N  0.51101653  0.41995281  0.58493318    -0.80700
H623        H  0.52327941  0.42055264  0.49798734     0.18500
C624        C  0.49511098  0.39428861  0.63539455    -0.25500
C625        C  0.48842854  0.39362846  0.68087262     0.36500
C626        C  0.47290313  0.39690333  0.68578417    -0.19600
C627        C  0.46444453  0.40019303  0.64440153    -0.24800
C628        C  0.47122590  0.40107427  0.59909777     0.27900
H629        H  0.50703256  0.39201141  0.63175807     0.13600
N630        N  0.49750722  0.39000352  0.72191173    -0.82100
H631        H  0.45253996  0.40260766  0.64752655     0.18500
N632        N  0.46243655  0.40509592  0.55779189    -0.80700
H633        H  0.50839747  0.38700712  0.71154732     0.34100
H634        H  0.49863147  0.39981131  0.74231380     0.38600
H635        H  0.45114208  0.40659320  0.56699490     0.34100
H636        H  0.46632150  0.41550537  0.54569597     0.30800
H637        H  0.52007102  0.42693393  0.57633348     0.34100
H638        H  0.50196841  0.42701098  0.59309634     0.30800
H639        H  0.50334697  0.37667514  0.41821755     0.38600
H640        H  0.48516634  0.37689120  0.43365888     0.34100
C641        C  0.45053759  0.53239977  0.76176539    -0.19600
C642        C  0.46125053  0.52492209  0.79080651     0.36600
C643        C  0.45981604  0.50940399  0.79876125    -0.25600
C644        C  0.44792754  0.50117407  0.77861618     0.03000
C645        C  0.43705894  0.50858989  0.75046937     0.27800
C646        C  0.43837915  0.52417896  0.74272738    -0.24700
N647        N  0.47351088  0.53307813  0.81234502    -0.82100
H648        H  0.46807866  0.50362064  0.82061325     0.13600
C649        C  0.44757400  0.48465690  0.78561593     0.03000
N650        N  0.42496686  0.50019330  0.72897208    -0.80700
H651        H  0.43013482  0.52984082  0.72052729     0.18500
C652        C  0.43601038  0.47804821  0.81236053    -0.25500
C653        C  0.43604348  0.46249798  0.82206748     0.36500
C654        C  0.44788112  0.45345649  0.80434464    -0.19600
C655        C  0.45925838  0.46014821  0.77690004    -0.24800
C656        C  0.45915784  0.47559103  0.76705440     0.27900
H657        H  0.42714724  0.48511337  0.82657221     0.13600
N658        N  0.42431076  0.45598272  0.85052816    -0.82100
H659        H  0.46824303  0.45326384  0.76256525     0.18500
N660        N  0.47077070  0.48215395  0.73816462    -0.80700
H661        H  0.41639380  0.46414340  0.86008483     0.34100
H662        H  0.42921392  0.45222122  0.88237045     0.38600
H663        H  0.47850877  0.47397309  0.72738717     0.34100
H664        H  0.46568301  0.48624253  0.70703028     0.30800
H665        H  0.41793782  0.50730583  0.70925584     0.34100
H666        H  0.42970338  0.49264043  0.70458181     0.30800
H667        H  0.46891369  0.54063454  0.83699249     0.38600
H668        H  0.48048889  0.52584765  0.83181943     0.34100
C669        C  0.53920909  0.53731515  0.25443811    -0.19600
C670        C  0.52676964  0.52871780  0.27035863     0.36600
C671        C  0.52870448  0.51339232  0.28060512    -0.25600
C672        C  0.54271642  0.50634947  0.27567059     0.03000
C673        C  0.55510242  0.51476468  0.25927828     0.27800
C674        C  0.55320675  0.53012572  0.24859714    -0.24700
N675        N  0.51223349  0.53551894  0.27680567    -0.82100
H676        H  0.51915303  0.50682069  0.29242198     0.13600
C677        C  0.54400045  0.49010044  0.28753829     0.03000
N678        N  0.56959193  0.50774894  0.25438501    -0.80700
H679        H  0.56280246  0.53656342  0.23647832     0.18500
C680        C  0.54857073  0.47985436  0.25224194    -0.25500
C681        C  0.54827648  0.46424810  0.26054620     0.36500
C682        C  0.54352225  0.45879969  0.30553740    -0.19600
C683        C  0.53934782  0.46912674  0.34116722    -0.24800
C684        C  0.53959528  0.48468761  0.33274079     0.27900
H685        H  0.55174786  0.48403324  0.21735723     0.13600
N686        N  0.55215936  0.45397353  0.22277412    -0.82100
H687        H  0.53571736  0.46503105  0.37569625     0.18500
N688        N  0.53521309  0.49504349  0.36972279    -0.80700
H689        H  0.55564800  0.45982810  0.19240372     0.34100
H690        H  0.54236665  0.44819575  0.21297988     0.38600
H691        H  0.53214679  0.48926863  0.40070267     0.34100
H692        H  0.54464612  0.50152109  0.37854649     0.30800
H693        H  0.57751855  0.51546705  0.24187029     0.34100
H694        H  0.57316109  0.50450023  0.28849360     0.30800
H695        H  0.50804182  0.53817467  0.24288645     0.38600
H696        H  0.50464542  0.52785317  0.29155904     0.34100
C697        C  0.51774691  0.59747482  0.37656277    -0.19600
C698        C  0.52684432  0.59663566  0.41818967     0.36600
C699        C  0.52002335  0.59674046  0.46351298    -0.25600
C700        C  0.50438800  0.59796877  0.46821427     0.03000
C701        C  0.49538073  0.59984212  0.42709708     0.27800
C702        C  0.50215376  0.59967507  0.38169425    -0.24700
N703        N  0.54292287  0.59536502  0.41442469    -0.82100
H704        H  0.52687564  0.59543981  0.49537440     0.13600
C705        C  0.49744470  0.59562158  0.51575928     0.03000
N706        N  0.47933721  0.60134105  0.43158346    -0.80700
H707        H  0.49509735  0.60050599  0.35013806     0.18500
C708        C  0.49137614  0.60780412  0.54107367    -0.25500
C709        C  0.48384932  0.60561704  0.58482517     0.36500
C710        C  0.48236905  0.59086621  0.60341224    -0.19600
C711        C  0.48884376  0.57880138  0.57827895    -0.24800
C712        C  0.49633429  0.58102200  0.53476587     0.27900
H713        H  0.49229672  0.61900046  0.52616863     0.13600
N714        N  0.47747844  0.61826852  0.60963929    -0.82100
H715        H  0.48790619  0.56750263  0.59234357     0.18500
N716        N  0.50266218  0.56846442  0.50933235    -0.80700
H717        H  0.47997754  0.62828735  0.59186881     0.34100
H718        H  0.46577434  0.61710995  0.60843990     0.38600
H719        H  0.50104440  0.55848843  0.52832814     0.34100
H720        H  0.49672937  0.56730243  0.47717467     0.30800
H721        H  0.47432748  0.60270100  0.39798312     0.34100
H722        H  0.47518812  0.59125745  0.44543659     0.30800
H723        H  0.54688094  0.60533182  0.39922260     0.38600
H724        H  0.54787863  0.59461545  0.44830638     0.34100
C725        C  0.47504573  0.59114640  0.87103329    -0.19600
C726        C  0.49074661  0.59317844  0.87711927     0.36600
C727        C  0.49690493  0.59337760  0.92341153    -0.25600
C728        C  0.48778838  0.59172246  0.96376374     0.03000
C729        C  0.47208579  0.59044953  0.95813127     0.27800
C730        C  0.46585573  0.59023822  0.91180896    -0.24700
N731        N  0.50046010  0.59474262  0.83645378    -0.82100
H732        H  0.50895739  0.59457299  0.92816542     0.13600
C733        C  0.49504686  0.59051099  0.01137873     0.03000
N734        N  0.46260765  0.58891758  0.99936667    -0.80700
H735        H  0.45382306  0.58875870  0.90759600     0.18500
C736        C  0.49251085  0.60161253  0.04607643    -0.25500
C737        C  0.49981902  0.60106526  0.09079713     0.36500
C738        C  0.50965315  0.58895594  0.10116316    -0.19600
C739        C  0.51204275  0.57782946  0.06623122    -0.24800
C740        C  0.50481173  0.57845205  0.02160937     0.27900
H741        H  0.48508085  0.61091495  0.03772394     0.13600
N742        N  0.49753942  0.61292995  0.12502143    -0.82100
H743        H  0.51954030  0.56852007  0.07381309     0.18500
N744        N  0.50729989  0.56686486  0.98654591    -0.80700
H745        H  0.48975506  0.62076213  0.11209406     0.34100
H746        H  0.50774609  0.61867013  0.12881742     0.38600
H747        H  0.51488029  0.55883790  0.99947164     0.34100
H748        H  0.49707090  0.56130216  0.98102757     0.30800
H749        H  0.45130796  0.58812394  0.98910402     0.34100
H750        H  0.46535346  0.57875302  0.01596394     0.30800
H751        H  0.49770319  0.60487997  0.81971067     0.38600
H752        H  0.51170238  0.59567758  0.84724195     0.34100
C753        C  0.14514141  0.21898750  0.40917355    -0.19600
C754        C  0.14295913  0.23470928  0.40408277     0.36600
C755        C  0.14243119  0.24106937  0.35797258    -0.25600
C756        C  0.14422259  0.23217104  0.31689485     0.03000
C757        C  0.14585345  0.21649749  0.32174720     0.27800
C758        C  0.14631293  0.21009391  0.36762447    -0.24700
N759        N  0.14157412  0.24425232  0.44539909    -0.82100
H760        H  0.14120817  0.25312971  0.35405542     0.13600
C761        C  0.14545881  0.23947771  0.26924540     0.03000
N762        N  0.14718085  0.20716433  0.27992099    -0.80700
H763        H  0.14785552  0.19805553  0.37081922     0.18500
C764        C  0.15889757  0.23796851  0.24358279    -0.25500
C765        C  0.16097597  0.24519472  0.19942429     0.36500
C766        C  0.14916921  0.25399166  0.17985024    -0.19600
C767        C  0.13559416  0.25523724  0.20539815    -0.24800
C768        C  0.13364789  0.24813224  0.24988364     0.27900
H769        H  0.16798677  0.23138332  0.25879212     0.13600
N770        N  0.17506092  0.24360455  0.17479946    -0.82100
H771        H  0.12648566  0.26194963  0.19094026     0.18500
N772        N  0.11973618  0.24965774  0.27548049    -0.80700
H773        H  0.18202355  0.23589120  0.19235115     0.34100
H774        H  0.18060269  0.25395708  0.17688597     0.38600
H775        H  0.11220462  0.25646400  0.25655119     0.34100
H776        H  0.11482490  0.23899490  0.27745777     0.30800
H777        H  0.14841222  0.19587283  0.28950219     0.34100
H778        H  0.13706605  0.20796856  0.26086686     0.30800
H779        H  0.15209808  0.24461286  0.46221048     0.38600
H780        H  0.13915262  0.25530107  0.43522747     0.34100
C781        C  0.15178997  0.21943598  0.68724007    -0.19600
C782        C  0.16411045  0.21938382  0.71964266     0.36600
C783        C  0.16254892  0.22617433  0.76488763    -0.25600
C784        C  0.14897121  0.23287726  0.77882832     0.03000
C785        C  0.13666521  0.23285136  0.74685480     0.27800
C786        C  0.13823034  0.22624717  0.70138429    -0.24700
N787        N  0.17828732  0.21283240  0.70632269    -0.82100
H788        H  0.17203418  0.22637876  0.78935992     0.13600
C789        C  0.14801030  0.24050865  0.82614258     0.03000
N790        N  0.12259809  0.23948866  0.76085994    -0.80700
H791        H  0.12870627  0.22625304  0.67708287     0.18500
C792        C  0.14472627  0.25591298  0.82774131    -0.25500
C793        C  0.14408320  0.26376888  0.87136336     0.36500
C794        C  0.14719248  0.25609708  0.91466123    -0.19600
C795        C  0.15018576  0.24056168  0.91294941    -0.24800
C796        C  0.15054566  0.23268617  0.86922502     0.27900
H797        H  0.14276959  0.26187657  0.79455413     0.13600
N798        N  0.14046395  0.27952923  0.87149922    -0.82100
H799        H  0.15250496  0.23454740  0.94579089     0.18500
N800        N  0.15352770  0.21679809  0.86834850    -0.80700
H801        H  0.13901849  0.28349659  0.83662269     0.34100
H802        H  0.13005404  0.28074144  0.88837113     0.38600
H803        H  0.15521326  0.21273642  0.90300618     0.34100
H804        H  0.14390081  0.21144784  0.85504306     0.30800
H805        H  0.11467620  0.23861484  0.73325300     0.34100
H806        H  0.11841775  0.23324156  0.78949904     0.30800
H807        H  0.17686013  0.20116612  0.70568310     0.38600
H808        H  0.18645701  0.21496471  0.73248517     0.34100
C809        C  0.41533411  0.37270198  0.84397651    -0.19600
C810        C  0.40034777  0.37544122  0.82899871     0.36600
C811        C  0.38906078  0.36481967  0.83933333    -0.25600
C812        C  0.39245431  0.35148798  0.86383972     0.03000
C813        C  0.40738167  0.34874892  0.87872844     0.27800
C814        C  0.41864958  0.35930509  0.86838437    -0.24700
N815        N  0.39665464  0.38883560  0.80278871    -0.82100
H816        H  0.37760245  0.36680787  0.82755088     0.13600
C817        C  0.38044130  0.34023676  0.87307456     0.03000
N818        N  0.41099017  0.33529723  0.90480899    -0.80700
H819        H  0.43006292  0.35715768  0.88030462     0.18500
C820        C  0.38211109  0.32562318  0.85489377    -0.25500
C821        C  0.37178320  0.31420558  0.86600391     0.36500
C822        C  0.35929352  0.31756228  0.89536768    -0.19600
C823        C  0.35725271  0.33238172  0.91169609    -0.24800
C824        C  0.36778965  0.34372266  0.90131139     0.27900
H825        H  0.39171133  0.32306603  0.83252087     0.13600
N826        N  0.37376100  0.29936915  0.84642448    -0.82100
H827        H  0.34761319  0.33502745  0.93377746     0.18500
N828        N  0.36586181  0.35865858  0.92010479    -0.80700
H829        H  0.38267347  0.29921833  0.82213262     0.34100
H830        H  0.37699638  0.29230660  0.87444119     0.38600
H831        H  0.35595362  0.35937505  0.94001433     0.34100
H832        H  0.37474008  0.36073145  0.94386702     0.30800
H833        H  0.42247442  0.33491656  0.91298589     0.34100
H834        H  0.40528838  0.33577544  0.93740379     0.30800
H835        H  0.40216794  0.38821906  0.76989011     0.38600
H836        H  0.38513300  0.38921512  0.79513511     0.34100
C837        C  0.27879767  0.29282872  0.95901188    -0.19600
C838        C  0.27405413  0.30395571  0.99209964     0.36600
C839        C  0.25871082  0.30496831  0.00432494    -0.25600
C840        C  0.24800180  0.29535867  0.98355237     0.03000
C841        C  0.25263990  0.28454816  0.94975930     0.27800
C842        C  0.26792310  0.28341320  0.93787263    -0.24700
N843        N  0.28475439  0.31403468  0.01373671    -0.82100
H844        H  0.25504827  0.31330828  0.03009204     0.13600
C845        C  0.23196892  0.29628974  0.99808815     0.03000
N846        N  0.24181133  0.27455439  0.92828494    -0.80700
H847        H  0.27136781  0.27488755  0.91243885     0.18500
C848        C  0.22099142  0.29958090  0.96351380    -0.25500
C849        C  0.20556402  0.29833650  0.97381246     0.36500
C850        C  0.20102916  0.29390125  0.02018656    -0.19600
C851        C  0.21208264  0.29149604  0.05545575    -0.24800
C852        C  0.22748999  0.29257780  0.04486445     0.27900
H853        H  0.22452549  0.30251670  0.92769431     0.13600
N854        N  0.19461961  0.30098403  0.93676085    -0.82100
H855        H  0.20871034  0.28824887  0.09114580     0.18500
N856        N  0.23859721  0.28940920  0.08097557    -0.80700
H857        H  0.19984944  0.30469622  0.90552042     0.34100
H858        H  0.18965045  0.29064941  0.92831382     0.38600
H859        H  0.23344085  0.28696402  0.11357764     0.34100
H860        H  0.24435947  0.27969104  0.07058956     0.30800
H861        H  0.24701019  0.26732842  0.90386096     0.34100
H862        H  0.23744027  0.26778265  0.95539002     0.30800
H863        H  0.28880448  0.32106014  0.98678301     0.38600
H864        H  0.27947803  0.32105558  0.03860095     0.34100
C865        C  0.36083534  0.16224094  0.41101507    -0.19600
C866        C  0.37550812  0.16326504  0.43088080     0.36600
C867        C  0.38609512  0.15184662  0.42155530    -0.25600
C868        C  0.38258741  0.13952013  0.39210196     0.03000
C869        C  0.36786502  0.13827434  0.37321827     0.27800
C870        C  0.35716497  0.14955678  0.38313214    -0.24700
N871        N  0.37962779  0.17572314  0.46108197    -0.82100
H872        H  0.39726822  0.15264662  0.43701338     0.13600
C873        C  0.39452173  0.12819819  0.38070717     0.03000
N874        N  0.36388791  0.12568541  0.34337093    -0.80700
H875        H  0.34597080  0.14859562  0.36795198     0.18500
C876        C  0.39182969  0.11284485  0.38869112    -0.25500
C877        C  0.40259715  0.10181357  0.37688002     0.36500
C878        C  0.41669017  0.10625475  0.35806846    -0.19600
C879        C  0.41943570  0.12166632  0.35093767    -0.24800
C880        C  0.40850512  0.13262017  0.36143187     0.27900
H881        H  0.38118711  0.10943129  0.40397710     0.13600
N882        N  0.39919048  0.08618002  0.38404298    -0.82100
H883        H  0.43015924  0.12524296  0.33662804     0.18500
N884        N  0.41150189  0.14822053  0.35196476    -0.80700
H885        H  0.38861888  0.08492210  0.39981054     0.34100
H886        H  0.39841239  0.08115186  0.35028620     0.38600
H887        H  0.42233121  0.14961389  0.33819040     0.34100
H888        H  0.40400477  0.15171852  0.32532066     0.30800
H889        H  0.35261960  0.12635731  0.33269489     0.34100
H890        H  0.37034704  0.12633208  0.31228995     0.30800
H891        H  0.38066823  0.18517810  0.43922544     0.38600
H892        H  0.39026377  0.17400549  0.47624113     0.34100
C893        C  0.28030492  0.18757825  0.46327813    -0.19600
C894        C  0.27530839  0.18530216  0.51079012     0.36600
C895        C  0.25973906  0.18467127  0.52020696    -0.25600
C896        C  0.24912037  0.18652794  0.48346431     0.03000
C897        C  0.25405449  0.18835951  0.43610192     0.27800
C898        C  0.26954177  0.18887450  0.42650838    -0.24700
N899        N  0.28593354  0.18418049  0.54952298    -0.82100
H900        H  0.25584109  0.18336892  0.55662135     0.13600
C901        C  0.23289918  0.18786881  0.49524978     0.03000
N902        N  0.24325604  0.18994956  0.39803725    -0.80700
H903        H  0.27320925  0.19056937  0.39002998     0.18500
C904        C  0.22594246  0.20189735  0.49026284    -0.25500
C905        C  0.21063290  0.20392192  0.50087938     0.36500
C906        C  0.20192281  0.19147957  0.51639631    -0.19600
C907        C  0.20898726  0.17737114  0.52105840    -0.24800
C908        C  0.22438309  0.17545512  0.51061672     0.27900
H909        H  0.23259284  0.21138675  0.47837406     0.13600
N910        N  0.20398445  0.21856722  0.49541144    -0.82100
H911        H  0.20247887  0.16777253  0.53274838     0.18500
N912        N  0.23137873  0.16095145  0.51504675    -0.80700
H913        H  0.21166072  0.22609660  0.48041307     0.34100
H914        H  0.20168307  0.22267301  0.52966844     0.38600
H915        H  0.22359126  0.15297820  0.52681406     0.34100
H916        H  0.23473678  0.15756823  0.48088542     0.30800
H917        H  0.24868794  0.19134082  0.36525853     0.34100
H918        H  0.23722955  0.17987486  0.39566745     0.30800
H919        H  0.29109181  0.19468432  0.55342509     0.38600
H920        H  0.28039525  0.18206840  0.58172655     0.34100
C921        C  0.33073925  0.22611295  0.55866405    -0.19600
C922        C  0.31841292  0.23507452  0.57326777     0.36600
C923        C  0.31886863  0.24230773  0.61806801    -0.25600
C924        C  0.33122714  0.24061766  0.64898732     0.03000
C925        C  0.34358116  0.23180049  0.63431967     0.27800
C926        C  0.34318091  0.22460117  0.58946086    -0.24700
N927        N  0.30523165  0.23634588  0.54355006    -0.82100
H928        H  0.30930462  0.24891696  0.62968564     0.13600
C929        C  0.33077111  0.24767335  0.69732370     0.03000
N930        N  0.35646290  0.23017301  0.66513211    -0.80700
H931        H  0.35263150  0.21772099  0.57853577     0.18500
C932        C  0.33196046  0.23855726  0.73807241    -0.25500
C933        C  0.33100210  0.24469388  0.78443200     0.36500
C934        C  0.32878325  0.26034963  0.79020358    -0.19600
C935        C  0.32762520  0.26943528  0.74924570    -0.24800
C936        C  0.32870660  0.26329458  0.70299956     0.27900
H937        H  0.33337063  0.22653123  0.73360470     0.13600
N938        N  0.33203793  0.23502658  0.82542156    -0.82100
H939        H  0.32607114  0.28145595  0.75327730     0.18500
N940        N  0.32784476  0.27286986  0.66173914    -0.80700
H941        H  0.33396900  0.22390035  0.81491028     0.34100
H942        H  0.32156724  0.23515187  0.84232968     0.38600
H943        H  0.32627270  0.28407529  0.67198475     0.34100
H944        H  0.33824122  0.27235766  0.64444008     0.30800
H945        H  0.36455331  0.22326320  0.64923273     0.34100
H946        H  0.36137449  0.24078986  0.66908604     0.30800
H947        H  0.30021845  0.22571781  0.54173844     0.38600
H948        H  0.29731837  0.24350325  0.55925593     0.34100
C949        C  0.33046876  0.22235721  0.29215388    -0.19600
C950        C  0.31914400  0.22096075  0.25663100     0.36600
C951        C  0.32114072  0.22786528  0.21186739    -0.25600
C952        C  0.33405209  0.23635788  0.20185475     0.03000
C953        C  0.34523459  0.23797996  0.23747815     0.27800
C954        C  0.34329684  0.23103261  0.28223649    -0.24700
N955        N  0.30552974  0.21279271  0.26628479    -0.82100
H956        H  0.31241516  0.22689165  0.18485264     0.13600
C957        C  0.33529734  0.24402658  0.15465414     0.03000
N958        N  0.35859874  0.24653454  0.22783388    -0.80700
H959        H  0.35201547  0.23215645  0.30919444     0.18500
C960        C  0.33660481  0.25973286  0.15318346    -0.25500
C961        C  0.33670180  0.26755958  0.10948570     0.36500
C962        C  0.33505836  0.25950029  0.06593916    -0.19600
C963        C  0.33425113  0.24370216  0.06757630    -0.24800
C964        C  0.33450903  0.23589882  0.11132808     0.27900
H965        H  0.33725767  0.26595837  0.18648501     0.13600
N966        N  0.33807064  0.28366930  0.10956205    -0.82100
H967        H  0.33320931  0.23737827  0.03457335     0.18500
N968        N  0.33388559  0.21974633  0.11199612    -0.80700
H969        H  0.33849432  0.28783634  0.14453707     0.34100
H970        H  0.34843381  0.28629985  0.09412271     0.38600
H971        H  0.33329203  0.21545197  0.07720124     0.34100
H972        H  0.34401016  0.21588387  0.12665991     0.30800
H973        H  0.36568974  0.24670843  0.25775198     0.34100
H974        H  0.36446185  0.24098605  0.20067270     0.30800
H975        H  0.29975082  0.21862381  0.29303746     0.38600
H976        H  0.29847796  0.21269557  0.23626205     0.34100
C977        C  0.14679093  0.76381895  0.11157969    -0.19600
C978        C  0.14878385  0.77279056  0.15315103     0.36600
C979        C  0.14850878  0.76595201  0.19842684    -0.25600
C980        C  0.14602325  0.75047980  0.20314429     0.03000
C981        C  0.14331620  0.74165228  0.16215539     0.27800
C982        C  0.14369537  0.74840443  0.11684953    -0.24700
N983        N  0.15153341  0.78867861  0.14946998    -0.82100
H984        H  0.15048427  0.77265464  0.23026110     0.13600
C985        C  0.14732214  0.74340596  0.25083875     0.03000
N986        N  0.14064821  0.72577137  0.16668768    -0.80700
H987        H  0.14203732  0.74145293  0.08540560     0.18500
C988        C  0.13462338  0.73684980  0.27177388    -0.25500
C989        C  0.13577728  0.72888168  0.31501905     0.36500
C990        C  0.14990481  0.72778853  0.33824136    -0.19600
C991        C  0.16254269  0.73460464  0.31742340    -0.24800
C992        C  0.16141744  0.74229093  0.27377299     0.27900
H993        H  0.12387167  0.73759768  0.25350927     0.13600
N994        N  0.12279536  0.72144399  0.33430720    -0.82100
H995        H  0.17341252  0.73371514  0.33488719     0.18500
N996        N  0.17458181  0.74865514  0.25197399    -0.80700
H997        H  0.11330231  0.72350641  0.31310262     0.34100
H998        H  0.12477346  0.70986265  0.33250358     0.38600
H999        H  0.18407254  0.74688306  0.27344933     0.34100
H1000       H  0.17647620  0.74285462  0.21998774     0.30800
H1001       H  0.13878692  0.72088450  0.13314122     0.34100
H1002       H  0.15045462  0.72088513  0.18039966     0.30800
H1003       H  0.14168486  0.79364324  0.13636913     0.38600
H1004       H  0.15343754  0.79339963  0.18323756     0.34100
C1005       C  0.15396024  0.75625591  0.83381894    -0.19600
C1006       C  0.16476506  0.75825171  0.79716690     0.36600
C1007       C  0.16283282  0.75083843  0.75312368    -0.25600
C1008       C  0.15035874  0.74159302  0.74447516     0.03000
C1009       C  0.13965012  0.73944223  0.78076420     0.27800
C1010       C  0.14157438  0.74674258  0.82509027    -0.24700
N1011       N  0.17770824  0.76769760  0.80452244    -0.82100
H1012       H  0.17108378  0.75232758  0.72510004     0.13600
C1013       C  0.14880540  0.73419164  0.69711521     0.03000
N1014       N  0.12680452  0.72997017  0.77221541    -0.80700
H1015       H  0.13322629  0.74513233  0.85271458     0.18500
C1016       C  0.14974841  0.71849874  0.69390036    -0.25500
C1017       C  0.14942231  0.71115181  0.64930637     0.36500
C1018       C  0.14840715  0.71977438  0.60686600    -0.19600
C1019       C  0.14686667  0.73547521  0.61051705    -0.24800
C1020       C  0.14696788  0.74274679  0.65518368     0.27900
H1021       H  0.15100521  0.71198675  0.72636648     0.13600
N1022       N  0.15031244  0.69502015  0.64716546    -0.82100
H1023       H  0.14592701  0.74217781  0.57836143     0.18500
N1024       N  0.14535976  0.75880803  0.65822573    -0.80700
H1025       H  0.15137066  0.69047905  0.68145909     0.34100
H1026       H  0.14007281  0.69109852  0.63344088     0.38600
H1027       H  0.14417537  0.76346922  0.62413858     0.34100
H1028       H  0.13534255  0.76104212  0.67639807     0.30800
H1029       H  0.11999264  0.72950797  0.80256228     0.34100
H1030       H  0.12035688  0.73496103  0.74522645     0.30800
H1031       H  0.17392800  0.77882920  0.80532296     0.38600
H1032       H  0.18504142  0.76696067  0.77547054     0.34100
C1033       C  0.35874340  0.65523407  0.60073840    -0.19600
C1034       C  0.35760537  0.64980680  0.64813545     0.36600
C1035       C  0.36828604  0.63941335  0.66516851    -0.25600
C1036       C  0.38003617  0.63435712  0.63598942     0.03000
C1037       C  0.38089232  0.63932694  0.58828265     0.27800
C1038       C  0.37026047  0.64973459  0.57118394    -0.24700
N1039       N  0.34599345  0.65523626  0.67939790    -0.82100
H1040       H  0.36768431  0.63548766  0.70175795     0.13600
C1041       C  0.39180459  0.62440799  0.65641140     0.03000
N1042       N  0.39275753  0.63402897  0.55776599    -0.80700
H1043       H  0.37114807  0.65380198  0.53482415     0.18500
C1044       C  0.39326636  0.60967462  0.63927210    -0.25500
C1045       C  0.40492042  0.60023479  0.65546546     0.36500
C1046       C  0.41519300  0.60560390  0.69051444    -0.19600
C1047       C  0.41338751  0.62030013  0.70841376    -0.24800
C1048       C  0.40193829  0.62979739  0.69131504     0.27900
H1049       H  0.38545847  0.60566134  0.61224653     0.13600
N1050       N  0.40643971  0.58538244  0.63562929    -0.82100
H1051       H  0.42119671  0.62458826  0.73498227     0.18500
N1052       N  0.40076992  0.64502285  0.70837002    -0.80700
H1053       H  0.39749720  0.58297844  0.61242809     0.34100
H1054       H  0.41613958  0.58532901  0.61459737     0.38600
H1055       H  0.40905766  0.64724149  0.73408022     0.34100
H1056       H  0.40294563  0.65215163  0.67954374     0.30800
H1057       H  0.39173074  0.63866713  0.52359955     0.34100
H1058       H  0.40294803  0.63793309  0.57190083     0.30800
H1059       H  0.34810212  0.66662568  0.68597920     0.38600
H1060       H  0.34656450  0.64984636  0.71253538     0.34100
C1061       C  0.28379777  0.68856106  0.52554430    -0.19600
C1062       C  0.27432707  0.67752449  0.54562452     0.36600
C1063       C  0.25874036  0.67813692  0.53652292    -0.25600
C1064       C  0.25254784  0.68939195  0.50727654     0.03000
C1065       C  0.26214994  0.69985521  0.48509351     0.27800
C1066       C  0.27760855  0.69944099  0.49493758    -0.24700
N1067       N  0.28043472  0.66605815  0.57618613    -0.82100
H1068       H  0.25133030  0.67009937  0.55347378     0.13600
C1069       C  0.23596899  0.69065201  0.50181564     0.03000
N1070       N  0.25612274  0.71091478  0.45283382    -0.80700
H1071       H  0.28489404  0.70771790  0.47857762     0.18500
C1072       C  0.22896617  0.70428134  0.51380001    -0.25500
C1073       C  0.21339760  0.70624812  0.50804966     0.36500
C1074       C  0.20459445  0.69427113  0.48973165    -0.19600
C1075       C  0.21155565  0.68047981  0.47915312    -0.24800
C1076       C  0.22717610  0.67857759  0.48468376     0.27900
H1077       H  0.23571936  0.71342915  0.52795317     0.13600
N1078       N  0.20652908  0.72029663  0.52128998    -0.82100
H1079       H  0.20484615  0.67126212  0.46531660     0.18500
N1080       N  0.23417820  0.66454872  0.47212881    -0.80700
H1081       H  0.21463783  0.72796054  0.53331947     0.34100
H1082       H  0.19944757  0.71820885  0.55028552     0.38600
H1083       H  0.22612965  0.65679877  0.46028250     0.34100
H1084       H  0.24132728  0.66657128  0.44325909     0.30800
H1085       H  0.26467901  0.71781459  0.43969105     0.34100
H1086       H  0.25160702  0.70517976  0.42341514     0.30800
H1087       H  0.28454567  0.67133959  0.60702141     0.38600
H1088       H  0.27196534  0.65870511  0.58727622     0.34100
C1089       C  0.41559896  0.86908086  0.16367234    -0.19600
C1090       C  0.40112603  0.86867415  0.18454176     0.36600
C1091       C  0.39049579  0.85805092  0.16813879    -0.25600
C1092       C  0.39402079  0.84795227  0.13126765     0.03000
C1093       C  0.40826507  0.84858078  0.10957778     0.27800
C1094       C  0.41891964  0.85907347  0.12612249    -0.24700
N1095       N  0.39736261  0.87877730  0.22285684    -0.82100
H1096       H  0.37950292  0.85745136  0.18465215     0.13600
C1097       C  0.38304458  0.83619553  0.11716942     0.03000
N1098       N  0.41179825  0.83861070  0.07062594    -0.80700
H1099       H  0.42989204  0.85947195  0.10942492     0.18500
C1100       C  0.37279134  0.83893470  0.07994302    -0.25500
C1101       C  0.36275206  0.82765674  0.06423991     0.36500
C1102       C  0.36309740  0.81335967  0.08628795    -0.19600
C1103       C  0.37333180  0.81078939  0.12385700    -0.24800
C1104       C  0.38323636  0.82205825  0.13965036     0.27900
H1105       H  0.37276445  0.84984770  0.06280106     0.13600
N1106       N  0.35241406  0.83063301  0.02576026    -0.82100
H1107       H  0.37351473  0.79994819  0.14144361     0.18500
N1108       N  0.39338789  0.81927064  0.17881750    -0.80700
H1109       H  0.35347353  0.84174487  0.01410427     0.34100
H1110       H  0.35547625  0.82378447  0.99695573     0.38600
H1111       H  0.39187530  0.80840353  0.19215834     0.34100
H1112       H  0.40436007  0.81971107  0.16560807     0.30800
H1113       H  0.42264172  0.84071510  0.05792587     0.34100
H1114       H  0.41187475  0.82762822  0.08383540     0.30800
H1115       H  0.40416793  0.87602690  0.25213894     0.38600
H1116       H  0.38623680  0.87713299  0.23368065     0.34100
C1117       C  0.28430180  0.78379271  0.03442078    -0.19600
C1118       C  0.27518232  0.79121034  0.06848248     0.36600
C1119       C  0.25956729  0.79234867  0.06032633    -0.25600
C1120       C  0.25292457  0.78616545  0.01914669     0.03000
C1121       C  0.26198709  0.77877614  0.98524624     0.27800
C1122       C  0.27755393  0.77770365  0.99315674    -0.24700
N1123       N  0.28168406  0.79724221  0.11159885    -0.82100
H1124       H  0.25248665  0.79789323  0.08644208     0.13600
C1125       C  0.23636474  0.78682199  0.01270371     0.03000
N1126       N  0.25528578  0.77219267  0.94324578    -0.80700
H1127       H  0.28445358  0.77197356  0.96696084     0.18500
C1128       C  0.23024384  0.79508067  0.97461259    -0.25500
C1129       C  0.21467121  0.79490533  0.96506788     0.36500
C1130       C  0.20505922  0.78641437  0.99472331    -0.19600
C1131       C  0.21123047  0.77841556  0.03337548    -0.24800
C1132       C  0.22677786  0.77845391  0.04248950     0.27900
H1133       H  0.23771763  0.80137736  0.95160492     0.13600
N1134       N  0.20870994  0.80287013  0.92454343    -0.82100
H1135       H  0.20389492  0.77190260  0.05622452     0.18500
N1136       N  0.23292629  0.76973280  0.08112997    -0.80700
H1137       H  0.21728107  0.80859773  0.90669670     0.34100
H1138       H  0.20450303  0.79487456  0.90048019     0.38600
H1139       H  0.22435305  0.76427587  0.09979759     0.34100
H1140       H  0.23964336  0.76130161  0.06618091     0.30800
H1141       H  0.26351081  0.76724653  0.92169154     0.34100
H1142       H  0.24820578  0.76350494  0.95441599     0.30800
H1143       H  0.28568569  0.78819138  0.13178018     0.38600
H1144       H  0.27345936  0.80252896  0.13233015     0.34100
C1145       C  0.34197124  0.75381313  0.91703035    -0.19600
C1146       C  0.33941716  0.73821272  0.91005157     0.36600
C1147       C  0.33965408  0.73218452  0.86345000    -0.25600
C1148       C  0.34254203  0.74127735  0.82369762     0.03000
C1149       C  0.34571565  0.75664627  0.83056303     0.27800
C1150       C  0.34535619  0.76276320  0.87702280    -0.24700
N1151       N  0.33617769  0.72857497  0.94988383    -0.82100
H1152       H  0.33729054  0.72034960  0.85790352     0.13600
C1153       C  0.34163209  0.73462138  0.77495673     0.03000
N1154       N  0.34912529  0.76599509  0.79018894    -0.80700
H1155       H  0.34745416  0.77467303  0.88180464     0.18500
C1156       C  0.32990626  0.73899406  0.74423403    -0.25500
C1157       C  0.32803568  0.73223186  0.69901525     0.36500
C1158       C  0.33829091  0.72105919  0.68394438    -0.19600
C1159       C  0.35030081  0.71705918  0.71413690    -0.24800
C1160       C  0.35193936  0.72356088  0.75979247     0.27900
H1161       H  0.32198441  0.74746809  0.75612867     0.13600
N1162       N  0.31574176  0.73660830  0.66851660    -0.82100
H1163       H  0.35809268  0.70838919  0.70281558     0.18500
N1164       N  0.36384140  0.71878809  0.79122043    -0.80700
H1165       H  0.30915758  0.74483442  0.68511808     0.34100
H1166       H  0.32032651  0.74157883  0.63803472     0.38600
H1167       H  0.37033130  0.71041437  0.77499399     0.34100
H1168       H  0.37095366  0.72799341  0.79685467     0.30800
H1169       H  0.35112715  0.77706614  0.80117925     0.34100
H1170       H  0.35916840  0.76206312  0.77534412     0.30800
H1171       H  0.34594898  0.72790022  0.97071795     0.38600
H1172       H  0.33387412  0.71762854  0.93822901     0.34100
C1173       C  0.33504620  0.75116114  0.18953252    -0.19600
C1174       C  0.32489890  0.75404170  0.22747471     0.36600
C1175       C  0.32641083  0.74609220  0.27062696    -0.25600
C1176       C  0.33802301  0.73562747  0.27755395     0.03000
C1177       C  0.34819165  0.73278166  0.24003106     0.27800
C1178       C  0.34655056  0.74049770  0.19644099    -0.24700
N1179       N  0.31312746  0.76503405  0.22246667    -0.82100
H1180       H  0.31854288  0.74817482  0.29939551     0.13600
C1181       C  0.33943124  0.72792361  0.32461209     0.03000
N1182       N  0.36024939  0.72219379  0.24653407    -0.80700
H1183       H  0.35442088  0.73823970  0.16783795     0.18500
C1184       C  0.33897493  0.71216179  0.32679075    -0.25500
C1185       C  0.33952436  0.70455221  0.37089908     0.36500
C1186       C  0.34040549  0.71293993  0.41398888    -0.19600
C1187       C  0.34132014  0.72870373  0.41139856    -0.24800
C1188       C  0.34082376  0.73625823  0.36737504     0.27900
H1189       H  0.33788915  0.70577930  0.29390007     0.13600
N1190       N  0.33891520  0.68840100  0.37188157    -0.82100
H1191       H  0.34201425  0.73526188  0.44402260     0.18500
N1192       N  0.34154539  0.75240581  0.36594445    -0.80700
H1193       H  0.33787429  0.68403666  0.33727205     0.34100
H1194       H  0.34924016  0.68457597  0.38515868     0.38600
H1195       H  0.34237561  0.75687341  0.40047021     0.34100
H1196       H  0.35144242  0.75535178  0.34819744     0.30800
H1197       H  0.36669775  0.72132222  0.21546902     0.34100
H1198       H  0.36736411  0.72644501  0.27318996     0.30800
H1199       H  0.31824284  0.77561050  0.22101769     0.38600
H1200       H  0.30625625  0.76517954  0.25272427     0.34100
C1201       C  0.62731660  0.66800639  0.11383099    -0.19600
C1202       C  0.62887814  0.65240958  0.10513442     0.36600
C1203       C  0.61778514  0.64244846  0.12192747    -0.25600
C1204       C  0.60526749  0.64776408  0.14719114     0.03000
C1205       C  0.60384487  0.66324993  0.15682453     0.27800
C1206       C  0.61478002  0.67321845  0.13949324    -0.24700
N1207       N  0.64154713  0.64675669  0.07883918    -0.82100
H1208       H  0.61880572  0.63049608  0.11497718     0.13600
C1209       C  0.59363642  0.63699030  0.16296786     0.03000
N1210       N  0.59163316  0.66872177  0.18567154    -0.80700
H1211       H  0.61368636  0.68512331  0.14709002     0.18500
C1212       C  0.59584714  0.62886247  0.20532611    -0.25500
C1213       C  0.58492875  0.61862669  0.22158516     0.36500
C1214       C  0.57157880  0.61659270  0.19485062    -0.19600
C1215       C  0.56946917  0.62469667  0.15231592    -0.24800
C1216       C  0.58044925  0.63474375  0.13575119     0.27900
H1217       H  0.60606855  0.63061780  0.22585346     0.13600
N1218       N  0.58720009  0.61055890  0.26548349    -0.82100
H1219       H  0.55930111  0.62297615  0.13147632     0.18500
N1220       N  0.57850308  0.64226513  0.09066325    -0.80700
H1221       H  0.59761703  0.61331703  0.28065830     0.34100
H1222       H  0.57899632  0.61417741  0.28961140     0.38600
H1223       H  0.56839470  0.63899751  0.07443846     0.34100
H1224       H  0.57760436  0.65379390  0.09717226     0.30800
H1225       H  0.59251559  0.68034645  0.19067347     0.34100
H1226       H  0.58158177  0.66690962  0.16709831     0.30800
H1227       H  0.64070996  0.65089158  0.04397234     0.38600
H1228       H  0.64107524  0.63503274  0.07621036     0.34100
C1229       C  0.57445287  0.87763694  0.66978940    -0.19600
C1230       C  0.58636637  0.88198142  0.63915957     0.36600
C1231       C  0.59795571  0.87164754  0.62873639    -0.25600
C1232       C  0.59784443  0.85707696  0.64776760     0.03000
C1233       C  0.58605414  0.85272465  0.67818203     0.27800
C1234       C  0.57456175  0.86302578  0.68902553    -0.24700
N1235       N  0.58665127  0.89673546  0.61830609    -0.82100
H1236       H  0.60701890  0.87486844  0.60507113     0.13600
C1237       C  0.60966787  0.84610339  0.63389483     0.03000
N1238       N  0.58571184  0.83774962  0.69742712    -0.80700
H1239       H  0.56552896  0.85950959  0.71234625     0.18500
C1240       C  0.62011221  0.84117977  0.66817487    -0.25500
C1241       C  0.63058802  0.82977699  0.65747157     0.36500
C1242       C  0.63063519  0.82321774  0.61132046    -0.19600
C1243       C  0.62023388  0.82830131  0.57699199    -0.24800
C1244       C  0.60979873  0.83970800  0.58775779     0.27900
H1245       H  0.61984097  0.84603959  0.70373361     0.13600
N1246       N  0.64082191  0.82454393  0.69373486    -0.82100
H1247       H  0.62021715  0.82331802  0.54159847     0.18500
N1248       N  0.59917408  0.84468673  0.55227504    -0.80700
H1249       H  0.63943330  0.83065931  0.72539481     0.34100
H1250       H  0.63795528  0.81341538  0.70154277     0.38600
H1251       H  0.60080378  0.83893429  0.52005759     0.34100
H1252       H  0.58841017  0.84183244  0.56416522     0.30800
H1253       H  0.57633112  0.83631874  0.71938463     0.34100
H1254       H  0.58439945  0.83027197  0.66879404     0.30800
H1255       H  0.57772275  0.89735409  0.59392885     0.38600
H1256       H  0.59647453  0.89827488  0.59845787     0.34100
C1257       C  0.65240720  0.76340112  0.43801046    -0.19600
C1258       C  0.64967307  0.77148367  0.39532111     0.36600
C1259       C  0.65041084  0.76396758  0.35106258    -0.25600
C1260       C  0.65339881  0.74849169  0.34848219     0.03000
C1261       C  0.65516762  0.74024608  0.39115909     0.27800
C1262       C  0.65473808  0.74778785  0.43539169    -0.24700
N1263       N  0.64625628  0.78728149  0.39690569    -0.82100
H1264       H  0.64888469  0.77025937  0.31827694     0.13600
C1265       C  0.65498180  0.74114581  0.30084894     0.03000
N1266       N  0.65750886  0.72425770  0.38933592    -0.80700
H1267       H  0.65665958  0.74147233  0.46791537     0.18500
C1268       C  0.66839277  0.73359254  0.28968660    -0.25500
C1269       C  0.67038127  0.72652891  0.24506225     0.36500
C1270       C  0.65867504  0.72706831  0.21062254    -0.19600
C1271       C  0.64539746  0.73493283  0.22155805    -0.24800
C1272       C  0.64336245  0.74181289  0.26642794     0.27900
H1273       H  0.67739989  0.73330050  0.31590935     0.13600
N1274       N  0.68426893  0.71891335  0.23465785    -0.82100
H1275       H  0.63635073  0.73532462  0.19551124     0.18500
N1276       N  0.62941817  0.74920607  0.27757984    -0.80700
H1277       H  0.69156502  0.71935614  0.26405855     0.34100
H1278       H  0.68954478  0.72477732  0.20705119     0.38600
H1279       H  0.62201970  0.74871335  0.24845784     0.34100
H1280       H  0.62434909  0.74322343  0.30532395     0.30800
H1281       H  0.65866598  0.71986990  0.42379992     0.34100
H1282       H  0.64781348  0.71941201  0.37463675     0.30800
H1283       H  0.63595543  0.78849902  0.41443685     0.38600
H1284       H  0.64470262  0.79152420  0.36240492     0.34100
C1285       C  0.65505052  0.72213816  0.93310484    -0.19600
C1286       C  0.66191514  0.71501020  0.89341894     0.36600
C1287       C  0.66143324  0.72195675  0.84829695    -0.25600
C1288       C  0.65433871  0.73587818  0.84188378     0.03000
C1289       C  0.64733035  0.74293693  0.88111616     0.27800
C1290       C  0.64779354  0.73602318  0.92638446    -0.24700
N1291       N  0.66977449  0.70098883  0.89925041    -0.82100
H1292       H  0.66692272  0.71666903  0.81807952     0.13600
C1293       C  0.65533601  0.74346591  0.79472073     0.03000
N1294       N  0.63998843  0.75720759  0.87490868    -0.80700
H1295       H  0.64254442  0.74153937  0.95660872     0.18500
C1296       C  0.64249071  0.74485092  0.76577925    -0.25500
C1297       C  0.64305551  0.75245877  0.72162296     0.36500
C1298       C  0.65681907  0.75882436  0.70617545    -0.19600
C1299       C  0.66967682  0.75720291  0.73522969    -0.24800
C1300       C  0.66907457  0.74960150  0.77918338     0.27900
H1301       H  0.63196179  0.74009879  0.77798964     0.13600
N1302       N  0.62965631  0.75391989  0.69304514    -0.82100
H1303       H  0.68028046  0.76196477  0.72374981     0.18500
N1304       N  0.68234090  0.74819269  0.80844317    -0.80700
H1305       H  0.62066660  0.74824770  0.70888946     0.34100
H1306       H  0.62672305  0.76530699  0.69263902     0.38600
H1307       H  0.69157535  0.75321614  0.79183470     0.34100
H1308       H  0.68046902  0.75419826  0.84005462     0.30800
H1309       H  0.63531228  0.76086925  0.90714295     0.34100
H1310       H  0.64822035  0.76507558  0.86572437     0.30800
H1311       H  0.67913368  0.70302483  0.92110990     0.38600
H1312       H  0.67395509  0.69717326  0.86649755     0.34100
C1313       C  0.78330183  0.69074014  0.96226022    -0.19600
C1314       C  0.77854622  0.67833960  0.99021981     0.36600
C1315       C  0.76360834  0.67783614  0.00710576    -0.25600
C1316       C  0.75339892  0.68939769  0.99669652     0.03000
C1317       C  0.75786441  0.70134633  0.96715571     0.27800
C1318       C  0.77273144  0.70194855  0.95052616    -0.24700
N1319       N  0.78880574  0.66638072  0.00178319    -0.82100
H1320       H  0.75998492  0.66857114  0.02935408     0.13600
C1321       C  0.73807057  0.68920845  0.01742278     0.03000
N1322       N  0.74726220  0.71291014  0.95455938    -0.80700
H1323       H  0.77609781  0.71138986  0.92864957     0.18500
C1324       C  0.73476485  0.69892684  0.05551322    -0.25500
C1325       C  0.71998149  0.70041923  0.07270945     0.36500
C1326       C  0.70824569  0.69208131  0.05092542    -0.19600
C1327       C  0.71176553  0.68177709  0.01441110    -0.24800
C1328       C  0.72654545  0.68038457  0.99709211     0.27900
H1329       H  0.74372632  0.70562372  0.07109673     0.13600
N1330       N  0.71683888  0.71051193  0.11166703    -0.82100
H1331       H  0.70283394  0.67534835  0.99758486     0.18500
N1332       N  0.72982318  0.67043256  0.95791785    -0.80700
H1333       H  0.72667499  0.71588363  0.12321635     0.34100
H1334       H  0.71307198  0.70403036  0.14036438     0.38600
H1335       H  0.72011438  0.66470298  0.94706002     0.34100
H1336       H  0.73314386  0.67703863  0.92895076     0.30800
H1337       H  0.75232641  0.72099105  0.93282546     0.34100
H1338       H  0.73876567  0.70790627  0.93401314     0.30800
H1339       H  0.79679678  0.67071408  0.02563648     0.38600
H1340       H  0.78324289  0.65778379  0.02002922     0.34100
C1341       C  0.78288481  0.79506864  0.45164287    -0.19600
C1342       C  0.77068912  0.79047911  0.42249123     0.36600
C1343       C  0.75589661  0.79201629  0.43958114    -0.25600
C1344       C  0.75310613  0.79796282  0.48516800     0.03000
C1345       C  0.76519414  0.80319608  0.51334502     0.27800
C1346       C  0.77997075  0.80180685  0.49615412    -0.24700
N1347       N  0.77337401  0.78408355  0.37604684    -0.82100
H1348       H  0.74652433  0.78807718  0.41803049     0.13600
C1349       C  0.73763440  0.79739795  0.50464259     0.03000
N1350       N  0.76239681  0.80950118  0.55984260    -0.80700
H1351       H  0.78928832  0.80536421  0.51859052     0.18500
C1352       C  0.73453234  0.78726709  0.54157864    -0.25500
C1353       C  0.71987866  0.78559767  0.55946321     0.36500
C1354       C  0.70804146  0.79429797  0.53990023    -0.19600
C1355       C  0.71129854  0.80479777  0.50385978    -0.24800
C1356       C  0.72598613  0.80637632  0.48586958     0.27900
H1357       H  0.74358326  0.78044178  0.55592970     0.13600
N1358       N  0.71700160  0.77504936  0.59720603    -0.82100
H1359       H  0.70228107  0.81147569  0.48866502     0.18500
N1360       N  0.72911227  0.81690251  0.44829845    -0.80700
H1361       H  0.72687201  0.76941409  0.60696034     0.34100
H1362       H  0.71361168  0.78119993  0.62719854     0.38600
H1363       H  0.71930344  0.82257759  0.43817252     0.34100
H1364       H  0.73646473  0.82501325  0.46212997     0.30800
H1365       H  0.77249712  0.81267369  0.57630658     0.34100
H1366       H  0.75614203  0.81934467  0.55501644     0.30800
H1367       H  0.77828419  0.79243031  0.35497601     0.38600
H1368       H  0.76321608  0.78118500  0.35942409     0.34100
C1369       C  0.83426171  0.72351086  0.78613786    -0.19600
C1370       C  0.84638818  0.73319711  0.77497288     0.36600
C1371       C  0.84672905  0.74036167  0.73015763    -0.25600
C1372       C  0.83525117  0.73811784  0.69628891     0.03000
C1373       C  0.82309805  0.72857861  0.70749174     0.27800
C1374       C  0.82280779  0.72129390  0.75199495    -0.24700
N1375       N  0.85840156  0.73561766  0.80869484    -0.82100
H1376       H  0.85611298  0.74759860  0.72125697     0.13600
C1377       C  0.83614803  0.74570885  0.64903832     0.03000
N1378       N  0.81100618  0.72646811  0.67381074    -0.80700
H1379       H  0.81341742  0.71399886  0.76029864     0.18500
C1380       C  0.83620934  0.73697890  0.60718920    -0.25500
C1381       C  0.83674987  0.74368225  0.56172344     0.36500
C1382       C  0.83694919  0.75955545  0.55794820    -0.19600
C1383       C  0.83732241  0.76824254  0.60008762    -0.24800
C1384       C  0.83692994  0.76150137  0.64548440     0.27900
H1385       H  0.83590720  0.72483331  0.61011217     0.13600
N1386       N  0.83699881  0.73438804  0.51960175    -0.82100
H1387       H  0.83752550  0.78039810  0.59772174     0.18500
N1388       N  0.83702672  0.77063948  0.68797940    -0.80700
H1389       H  0.83636219  0.72300793  0.52869226     0.34100
H1390       H  0.84745392  0.73591456  0.50330334     0.38600
H1391       H  0.83773653  0.78204221  0.67924745     0.34100
H1392       H  0.82670627  0.76912660  0.70511877     0.30800
H1393       H  0.80296056  0.71906169  0.68740727     0.34100
H1394       H  0.80562849  0.73683760  0.66947659     0.30800
H1395       H  0.86415543  0.72543214  0.81253644     0.38600
H1396       H  0.86618462  0.74334080  0.79532823     0.34100
C1397       C  0.83255197  0.76073534  0.28397015    -0.19600
C1398       C  0.83835198  0.76856649  0.24418977     0.36600
C1399       C  0.83952157  0.76117694  0.19991261    -0.25600
C1400       C  0.83492484  0.74618172  0.19433709     0.03000
C1401       C  0.82916666  0.73833581  0.23411837     0.27800
C1402       C  0.82824917  0.74563656  0.27867955    -0.24700
N1403       N  0.84330590  0.78389085  0.24905154    -0.82100
H1404       H  0.84415109  0.76710988  0.16954974     0.13600
C1405       C  0.83607033  0.73890515  0.14651939     0.03000
N1406       N  0.82402444  0.72308705  0.22888457    -0.80700
H1407       H  0.82379735  0.73962866  0.30916251     0.18500
C1408       C  0.84406000  0.72537971  0.14167508    -0.25500
C1409       C  0.84465217  0.71769300  0.09767155     0.36500
C1410       C  0.83743848  0.72395642  0.05706098    -0.19600
C1411       C  0.83004823  0.73786627  0.06169974    -0.24800
C1412       C  0.82908691  0.74527406  0.10598300     0.27900
H1413       H  0.84962224  0.72064523  0.17272712     0.13600
N1414       N  0.85253876  0.70360877  0.09444938    -0.82100
H1415       H  0.82442837  0.74273711  0.03098487     0.18500
N1416       N  0.82069198  0.75903978  0.11019480    -0.80700
H1417       H  0.85823085  0.70132739  0.12641275     0.34100
H1418       H  0.84446286  0.69513441  0.09078454     0.38600
H1419       H  0.81629297  0.76225635  0.07703672     0.34100
H1420       H  0.81149472  0.75694759  0.13239947     0.30800
H1421       H  0.82015893  0.71892286  0.26152715     0.34100
H1422       H  0.81477759  0.72318810  0.20564886     0.30800
H1423       H  0.85256643  0.78394021  0.27215598     0.38600
H1424       H  0.84711625  0.78804165  0.21627937     0.34100
C1425       C  0.12824528  0.66173693  0.42493128    -0.19600
C1426       C  0.12902536  0.65559392  0.37825193     0.36600
C1427       C  0.11899841  0.64409257  0.36468478    -0.25600
C1428       C  0.10817207  0.63866331  0.39650867     0.03000
C1429       C  0.10738077  0.64468063  0.44309608     0.27800
C1430       C  0.11740704  0.65617390  0.45682676    -0.24700
N1431       N  0.13969471  0.66129321  0.34432005    -0.82100
H1432       H  0.11945456  0.63946428  0.32883754     0.13600
C1433       C  0.09732166  0.62707110  0.37998883     0.03000
N1434       N  0.09629138  0.63919142  0.47601866    -0.80700
H1435       H  0.11671610  0.66084944  0.49256329     0.18500
C1436       C  0.09826397  0.61243926  0.39823172    -0.25500
C1437       C  0.08768096  0.60136474  0.38517013     0.36500
C1438       C  0.07579794  0.60512146  0.35345517    -0.19600
C1439       C  0.07521487  0.61970253  0.33420870    -0.24800
C1440       C  0.08588483  0.63067651  0.34695448     0.27900
H1441       H  0.10719591  0.60973269  0.42326322     0.13600
N1442       N  0.08884177  0.58648209  0.40479877    -0.82100
H1443       H  0.06628606  0.62262389  0.30942632     0.18500
N1444       N  0.08506488  0.64553191  0.32694415    -0.80700
H1445       H  0.09850057  0.58549869  0.42604012     0.34100
H1446       H  0.07967727  0.58492692  0.42757690     0.38600
H1447       H  0.07609680  0.64631802  0.30276165     0.34100
H1448       H  0.08273895  0.65302291  0.35482589     0.30800
H1449       H  0.09725118  0.64471001  0.50894633     0.34100
H1450       H  0.08568533  0.64192394  0.46223966     0.30800
H1451       H  0.13667822  0.67239799  0.33665356     0.38600
H1452       H  0.13897289  0.65535957  0.31206426     0.34100
C1453       C  0.91926662  0.60880187  0.84461374    -0.19600
C1454       C  0.90501141  0.60429320  0.86209674     0.36600
C1455       C  0.89381710  0.61518296  0.87004431    -0.25600
C1456       C  0.89656172  0.63047063  0.86180406     0.03000
C1457       C  0.91068266  0.63499951  0.84412519     0.27800
C1458       C  0.92184597  0.62413964  0.83560172    -0.24700
N1459       N  0.90194066  0.58876983  0.87250117    -0.82100
H1460       H  0.88300389  0.61179027  0.88417100     0.13600
C1461       C  0.88477351  0.64169253  0.87382296     0.03000
N1462       N  0.91363038  0.65063364  0.83507837    -0.80700
H1463       H  0.93267680  0.62773573  0.82217267     0.18500
C1464       C  0.88808488  0.65298035  0.90728904    -0.25500
C1465       C  0.87740851  0.66396542  0.91951315     0.36500
C1466       C  0.86298125  0.66363473  0.89782981    -0.19600
C1467       C  0.85955693  0.65204295  0.86522706    -0.24800
C1468       C  0.87035576  0.64116402  0.85263718     0.27900
H1469       H  0.89909358  0.65317556  0.92410169     0.13600
N1470       N  0.88122089  0.67540746  0.95391056    -0.82100
H1471       H  0.84856245  0.65171637  0.84837924     0.18500
N1472       N  0.86686661  0.62978481  0.81769730    -0.80700
H1473       H  0.89238671  0.67427061  0.96528736     0.34100
H1474       H  0.87451333  0.67368678  0.98402599     0.38600
H1475       H  0.85579002  0.63094515  0.80550758     0.34100
H1476       H  0.87382347  0.63156189  0.78818889     0.30800
H1477       H  0.92459230  0.65212433  0.82250966     0.34100
H1478       H  0.90638646  0.65408616  0.80768166     0.30800
H1479       H  0.90842867  0.58583260  0.90231434     0.38600
H1480       H  0.89071375  0.58734027  0.88257804     0.34100
C1481       C  0.97788026  0.58333027  0.96616786    -0.19600
C1482       C  0.97583717  0.57284990  0.00367786     0.36600
C1483       C  0.98244669  0.57559592  0.04861871    -0.25600
C1484       C  0.99120178  0.58844276  0.05705446     0.03000
C1485       C  0.99310991  0.59901849  0.02013449     0.27800
C1486       C  0.98649452  0.59633248  0.97504339    -0.24700
N1487       N  0.96735447  0.55928422  0.99594612    -0.82100
H1488       H  0.98118824  0.56739443  0.07691667     0.13600
C1489       C  0.99930744  0.58984950  0.10346599     0.03000
N1490       N  0.00174727  0.61243166  0.02868553    -0.80700
H1491       H  0.98798887  0.60450445  0.94680879     0.18500
C1492       C  0.01507031  0.58958506  0.10364408    -0.25500
C1493       C  0.02326417  0.58861400  0.14662608     0.36500
C1494       C  0.01547073  0.58765878  0.19062072    -0.19600
C1495       C  0.99968297  0.58889481  0.19041852    -0.24800
C1496       C  0.99153599  0.58999638  0.14730134     0.27900
H1497       H  0.02100042  0.58956120  0.06986717     0.13600
N1498       N  0.03943186  0.58816049  0.14541024    -0.82100
H1499       H  0.99360593  0.58843944  0.22387649     0.18500
N1500       N  0.97538682  0.59089423  0.14769114    -0.80700
H1501       H  0.04331747  0.58850413  0.11019658     0.34100
H1502       H  0.04337256  0.59794283  0.16208734     0.38600
H1503       H  0.97136800  0.59079398  0.18277080     0.34100
H1504       H  0.97236367  0.60129283  0.13317157     0.30800
H1505       H  0.00209843  0.61907181  0.99792013     0.34100
H1506       H  0.99612230  0.61872507  0.05470473     0.30800
H1507       H  0.97335139  0.55266071  0.97165267     0.38600
H1508       H  0.96661863  0.55303801  0.02747262     0.34100
C1509       C  0.01414901  0.57800427  0.45759484    -0.19600
C1510       C  0.99949707  0.57209891  0.46332482     0.36600
C1511       C  0.99243885  0.57308758  0.50819508    -0.25600
C1512       C  0.99958459  0.58006739  0.54724597     0.03000
C1513       C  0.01399696  0.58642776  0.54101422     0.27800
C1514       C  0.02122015  0.58509442  0.49659175    -0.24700
N1515       N  0.99195602  0.56482858  0.42399982    -0.82100
H1516       H  0.98142956  0.56809945  0.51303151     0.13600
C1517       C  0.99217731  0.58017565  0.59497339     0.03000
N1518       N  0.02117843  0.59432724  0.57980314    -0.80700
H1519       H  0.03235962  0.58983598  0.49218801     0.18500
C1520       C  0.99999219  0.57433605  0.63444993    -0.25500
C1521       C  0.99364951  0.57429705  0.68040079     0.36500
C1522       C  0.97904892  0.58029575  0.68730371    -0.19600
C1523       C  0.97112524  0.58590063  0.64744815    -0.24800
C1524       C  0.97754046  0.58595759  0.60149056     0.27900
H1525       H  0.01109640  0.56958663  0.62920078     0.13600
N1526       N  0.00197738  0.56800007  0.71972116    -0.82100
H1527       H  0.95988642  0.59037126  0.65214394     0.18500
N1528       N  0.96931658  0.59200947  0.56156339    -0.80700
H1529       H  0.01273826  0.56472184  0.70886231     0.34100
H1530       H  0.99644666  0.55816927  0.73013439     0.38600
H1531       H  0.95868725  0.59572942  0.57227809     0.34100
H1532       H  0.97514170  0.60147536  0.54952080     0.30800
H1533       H  0.03172697  0.59834575  0.56945111     0.34100
H1534       H  0.01459942  0.60375887  0.58765861     0.30800
H1535       H  0.99797116  0.55505518  0.41581398     0.38600
H1536       H  0.98116358  0.56138927  0.43393319     0.34100
C1537       C  0.07151795  0.37259334  0.16034439    -0.19600
C1538       C  0.07200543  0.35781616  0.17911401     0.36600
C1539       C  0.08346145  0.34794644  0.16455641    -0.25600
C1540       C  0.09451088  0.35253738  0.13226917     0.03000
C1541       C  0.09440062  0.36732541  0.11457600     0.27800
C1542       C  0.08290530  0.37723381  0.12878623    -0.24700
N1543       N  0.06089493  0.35282195  0.21274321    -0.82100
H1544       H  0.08373146  0.33654184  0.17811122     0.13600
C1545       C  0.10578701  0.34146742  0.11596009     0.03000
N1546       N  0.10582943  0.37209664  0.08170948    -0.80700
H1547       H  0.08269806  0.38853339  0.11442028     0.18500
C1548       C  0.10356066  0.33421622  0.07202636    -0.25500
C1549       C  0.11343778  0.32290274  0.05645254     0.36500
C1550       C  0.12583882  0.31884298  0.08550916    -0.19600
C1551       C  0.12828407  0.32648689  0.12891853    -0.24800
C1552       C  0.11825546  0.33767308  0.14467508     0.27900
H1553       H  0.09392290  0.33724978  0.05022306     0.13600
N1554       N  0.11089101  0.31551947  0.01134423    -0.82100
H1555       H  0.13774655  0.32337323  0.15135520     0.18500
N1556       N  0.12043343  0.34494745  0.19013589    -0.80700
H1557       H  0.10117562  0.31967901  0.99481318     0.34100
H1558       H  0.11988830  0.31822700  0.98899317     0.38600
H1559       H  0.13003650  0.34074929  0.20720910     0.34100
H1560       H  0.12244636  0.35634317  0.18365640     0.30800
H1561       H  0.10409996  0.38328732  0.07171490     0.34100
H1562       H  0.11614906  0.37175538  0.09976892     0.30800
H1563       H  0.06241517  0.35904469  0.24416656     0.38600
H1564       H  0.06265120  0.34155674  0.22182700     0.34100
C1565       C  0.04675408  0.52680575  0.28871918    -0.19600
C1566       C  0.04258195  0.51485968  0.31915979     0.36600
C1567       C  0.04400346  0.49995758  0.30293776    -0.25600
C1568       C  0.04941514  0.49678176  0.25704014     0.03000
C1569       C  0.05391937  0.50860711  0.22701543     0.27800
C1570       C  0.05264478  0.52351725  0.24328014    -0.24700
N1571       N  0.03685308  0.51786877  0.36620934    -0.82100
H1572       H  0.04050893  0.49075636  0.32567409     0.13600
C1573       C  0.04895363  0.48107994  0.23968274     0.03000
N1574       N  0.05946703  0.50540553  0.17987092    -0.80700
H1575       H  0.05582575  0.53263099  0.21975986     0.18500
C1576       C  0.03769377  0.47699922  0.20703053    -0.25500
C1577       C  0.03546306  0.46190691  0.19411819     0.36500
C1578       C  0.04474284  0.45066840  0.21441042    -0.19600
C1579       C  0.05658226  0.45490287  0.24511532    -0.24800
C1580       C  0.05871159  0.47004522  0.25820947     0.27900
H1581       H  0.03030256  0.48560369  0.19279113     0.13600
N1582       N  0.02367018  0.45795292  0.16103515    -0.82100
H1583       H  0.06379062  0.44633602  0.26045162     0.18500
N1584       N  0.07044779  0.47425303  0.29112709    -0.80700
H1585       H  0.01775363  0.46751843  0.15010645     0.34100
H1586       H  0.02875155  0.45350490  0.13045358     0.38600
H1587       H  0.07657369  0.46479124  0.30180002     0.34100
H1588       H  0.07793556  0.48122020  0.27282636     0.30800
H1589       H  0.06215926  0.51536863  0.16207542     0.34100
H1590       H  0.06950621  0.49938734  0.18370815     0.30800
H1591       H  0.04552426  0.52284512  0.38606543     0.38600
H1592       H  0.03412988  0.50784358  0.38360580     0.34100
C1593       C  0.94454258  0.45418804  0.71341528    -0.19600
C1594       C  0.95540853  0.46483648  0.69899801     0.36600
C1595       C  0.95458070  0.47961776  0.71653364    -0.25600
C1596       C  0.94307076  0.48402268  0.74771973     0.03000
C1597       C  0.93174070  0.47367470  0.76001914     0.27800
C1598       C  0.93251016  0.45886483  0.74235431    -0.24700
N1599       N  0.96732206  0.46057988  0.66705886    -0.82100
H1600       H  0.96309249  0.48773163  0.70647452     0.13600
C1601       C  0.94350153  0.49938285  0.76839532     0.03000
N1602       N  0.91984245  0.47809843  0.79174423    -0.80700
H1603       H  0.92412214  0.45075124  0.75333734     0.18500
C1604       C  0.93210906  0.50971528  0.75727117    -0.25500
C1605       C  0.93313958  0.52483863  0.77204998     0.36500
C1606       C  0.94586914  0.52963003  0.79873007    -0.19600
C1607       C  0.95678480  0.51896620  0.81197739    -0.24800
C1608       C  0.95569598  0.50391693  0.79730753     0.27900
H1609       H  0.92268768  0.50608858  0.73538884     0.13600
N1610       N  0.92154576  0.53532004  0.75876534    -0.82100
H1611       H  0.96641088  0.52242746  0.83320093     0.18500
N1612       N  0.96703600  0.49321400  0.81107432    -0.80700
H1613       H  0.91273806  0.52979417  0.74111123     0.34100
H1614       H  0.92616403  0.54276951  0.73397387     0.38600
H1615       H  0.97531133  0.49835327  0.83218317     0.34100
H1616       H  0.96186687  0.48512744  0.83254243     0.30800
H1617       H  0.91240808  0.46916219  0.79723822     0.34100
H1618       H  0.92470167  0.48056559  0.82496085     0.30800
H1619       H  0.96238518  0.45770125  0.63428989     0.38600
H1620       H  0.97443488  0.46970118  0.66046400     0.34100
C1621       C  0.97776512  0.40300382  0.56089095    -0.19600
C1622       C  0.98897705  0.39186936  0.55397524     0.36600
C1623       C  0.99599500  0.39054604  0.50915760    -0.25600
C1624       C  0.99234147  0.40026926  0.47153911     0.03000
C1625       C  0.98163586  0.41172059  0.47880349     0.27800
C1626       C  0.97438112  0.41289592  0.52317417    -0.24700
N1627       N  0.99312007  0.38182584  0.59201000    -0.82100
H1628       H  0.00435590  0.38186231  0.50339631     0.13600
C1629       C  0.99985920  0.39846527  0.42462032     0.03000
N1630       N  0.97821044  0.42212125  0.44101360    -0.80700
H1631       H  0.96598950  0.42159061  0.52817231     0.18500
C1632       C  0.99120315  0.39475962  0.38427575    -0.25500
C1633       C  0.99772575  0.39377351  0.33862790     0.36500
C1634       C  0.01323850  0.39695940  0.33308580    -0.19600
C1635       C  0.02195827  0.40008537  0.37408069    -0.24800
C1636       C  0.01544009  0.40082516  0.41973209     0.27900
H1637       H  0.97926454  0.39269036  0.38851551     0.13600
N1638       N  0.98857675  0.38975302  0.29806648    -0.82100
H1639       H  0.03386951  0.40237737  0.37045910     0.18500
N1640       N  0.02450536  0.40430067  0.46100847    -0.80700
H1641       H  0.97737026  0.38823098  0.30822489     0.34100
H1642       H  0.99234860  0.37930766  0.28571718     0.38600
H1643       H  0.03578271  0.40563680  0.45139954     0.34100
H1644       H  0.02090032  0.41467436  0.47441637     0.30800
H1645       H  0.97005596  0.42985572  0.45200585     0.34100
H1646       H  0.98796961  0.42829865  0.43409245     0.30800
H1647       H  0.99858018  0.38822444  0.61826363     0.38600
H1648       H  0.00097865  0.37390935  0.58016771     0.34100
C1649       C  0.97060016  0.39738408  0.83390242    -0.19600
C1650       C  0.98503975  0.39105235  0.84099616     0.36600
C1651       C  0.99149011  0.39114880  0.88705211    -0.25600
C1652       C  0.98379379  0.39729555  0.92622151     0.03000
C1653       C  0.96916777  0.40308323  0.91955409     0.27800
C1654       C  0.96271950  0.40303941  0.87357084    -0.24700
N1655       N  0.99317126  0.38467980  0.80150100    -0.82100
H1656       H  0.00271855  0.38668085  0.89232496     0.13600
C1657       C  0.99143972  0.39818390  0.97357431     0.03000
N1658       N  0.96100884  0.40915146  0.95947502    -0.80700
H1659       H  0.95163576  0.40787221  0.86852477     0.18500
C1660       C  0.99388561  0.41232435  0.99456226    -0.25500
C1661       C  0.00171567  0.41379821  0.03813950     0.36500
C1662       C  0.00709767  0.40076362  0.06161145    -0.19600
C1663       C  0.00424550  0.38658474  0.04116508    -0.24800
C1664       C  0.99657097  0.38516786  0.99725719     0.27900
H1665       H  0.98992907  0.42230441  0.97624524     0.13600
N1666       N  0.00388890  0.42845370  0.05892368    -0.82100
H1667       H  0.00830554  0.37656822  0.05902806     0.18500
N1668       N  0.99399217  0.37057984  0.97652735    -0.80700
H1669       H  0.99802036  0.43659555  0.03942206     0.34100
H1670       H  0.01527548  0.43117118  0.05555489     0.38600
H1671       H  0.99854455  0.36216178  0.99823941     0.34100
H1672       H  0.98236423  0.36880666  0.97554601     0.30800
H1673       H  0.95045617  0.41308485  0.94855026     0.34100
H1674       H  0.95905008  0.40034803  0.98335472     0.30800
H1675       H  0.98714615  0.37528722  0.78953813     0.38600
H1676       H  0.00369529  0.38074142  0.81269373     0.34100
C1677       C  0.06672206  0.10732929  0.65665187    -0.19600
C1678       C  0.08039043  0.10249959  0.63567606     0.36600
C1679       C  0.09104435  0.11325446  0.62127235    -0.25600
C1680       C  0.08842129  0.12870317  0.62718652     0.03000
C1681       C  0.07495224  0.13352912  0.64887244     0.27800
C1682       C  0.06425900  0.12282368  0.66318701    -0.24700
N1683       N  0.08339260  0.08677391  0.62829728    -0.82100
H1684       H  0.10135741  0.10958370  0.60431296     0.13600
C1685       C  0.09983318  0.13968512  0.61005138     0.03000
N1686       N  0.07221005  0.14929226  0.65640129    -0.80700
H1687       H  0.05388493  0.12665864  0.67937078     0.18500
C1688       C  0.09562597  0.15069897  0.57674169    -0.25500
C1689       C  0.10605225  0.16134536  0.55991239     0.36500
C1690       C  0.12111231  0.16095399  0.57669665    -0.19600
C1691       C  0.12533893  0.14968567  0.60929302    -0.24800
C1692       C  0.11485189  0.13916400  0.62644762     0.27900
H1693       H  0.08413287  0.15093603  0.56365161     0.13600
N1694       N  0.10135492  0.17250163  0.52587032    -0.82100
H1695       H  0.13678707  0.14936117  0.62270156     0.18500
N1696       N  0.11931222  0.12814101  0.66125491    -0.80700
H1697       H  0.08988514  0.17141411  0.51809150     0.34100
H1698       H  0.10708875  0.17037974  0.49399214     0.38600
H1699       H  0.13073545  0.12924254  0.66964222     0.34100
H1700       H  0.11337624  0.13036839  0.69268811     0.30800
H1701       H  0.06175053  0.15098081  0.67254099     0.34100
H1702       H  0.08032943  0.15322769  0.68052481     0.30800
H1703       H  0.07603048  0.08295811  0.60165800     0.38600
H1704       H  0.09425589  0.08518049  0.61497162     0.34100
C1705       C  0.97297276  0.07914682  0.05110486    -0.19600
C1706       C  0.98875902  0.07926568  0.04531594     0.36600
C1707       C  0.99479032  0.08055474  0.99910241    -0.25600
C1708       C  0.98536452  0.08161462  0.95885150     0.03000
C1709       C  0.96963259  0.08156472  0.96471466     0.27800
C1710       C  0.96361347  0.08027086  0.01072027    -0.24700
N1711       N  0.99857547  0.07771537  0.08599229    -0.82100
H1712       H  0.00688255  0.08037661  0.99425020     0.13600
C1713       C  0.99207870  0.08205145  0.91052364     0.03000
N1714       N  0.95984756  0.08285431  0.92385386    -0.80700
H1715       H  0.95150303  0.08031151  0.01509963     0.18500
C1716       C  0.98832809  0.07072565  0.87765292    -0.25500
C1717       C  0.99472089  0.07037738  0.83191931     0.36500
C1718       C  0.00531914  0.08151117  0.81910562    -0.19600
C1719       C  0.00896694  0.09292789  0.85196790    -0.24800
C1720       C  0.00222429  0.09346584  0.89729398     0.27900
H1721       H  0.98055380  0.06195217  0.88812234     0.13600
N1722       N  0.99076765  0.05852779  0.79909198    -0.82100
H1723       H  0.01699426  0.10153320  0.84206509     0.18500
N1724       N  0.00550387  0.10559378  0.92978741    -0.80700
H1725       H  0.98251438  0.05155476  0.81370490     0.34100
H1726       H  0.00031675  0.05183128  0.79424128     0.38600
H1727       H  0.01315645  0.11309457  0.91454235     0.34100
H1728       H  0.99552434  0.11159539  0.93506402     0.30800
H1729       H  0.94856587  0.08256850  0.93428253     0.34100
H1730       H  0.96167571  0.09342049  0.90864157     0.30800
H1731       H  0.99683792  0.06700165  0.10026688     0.38600
H1732       H  0.00984361  0.07813288  0.07545361     0.34100
C1733       C  0.96859352  0.08769827  0.32725862    -0.19600
C1734       C  0.96268690  0.08015786  0.36754319     0.36600
C1735       C  0.97023130  0.08120488  0.41153976    -0.25600
C1736       C  0.98362122  0.08938485  0.41609805     0.03000
C1737       C  0.98931794  0.09727095  0.37648300     0.27800
C1738       C  0.98175316  0.09632675  0.33233874    -0.24700
N1739       N  0.94949634  0.07086246  0.36331148    -0.82100
H1740       H  0.96602783  0.07502984  0.44205567     0.13600
C1741       C  0.99204855  0.08850023  0.46175870     0.03000
N1742       N  0.00285301  0.10600534  0.38119674    -0.80700
H1743       H  0.98629360  0.10212800  0.30158734     0.18500
C1744       C  0.00617483  0.08152723  0.46227167    -0.25500
C1745       C  0.01381092  0.07877004  0.50544471     0.36500
C1746       C  0.00720833  0.08333415  0.54923644    -0.19600
C1747       C  0.99321392  0.09073727  0.54824022    -0.24800
C1748       C  0.98555562  0.09330479  0.50498304     0.27900
H1749       H  0.01101185  0.07772149  0.42884581     0.13600
N1750       N  0.02816910  0.07131410  0.50463493    -0.82100
H1751       H  0.98811087  0.09439879  0.58139105     0.18500
N1752       N  0.97113601  0.10063715  0.50466727    -0.80700
H1753       H  0.03180794  0.06971744  0.46947903     0.34100
H1754       H  0.02663217  0.06055975  0.51881487     0.38600
H1755       H  0.96785299  0.10340657  0.53944568     0.34100
H1756       H  0.97233274  0.11077446  0.48621884     0.30800
H1757       H  0.00558438  0.11106011  0.34865831     0.34100
H1758       H  0.00066417  0.11472836  0.40532549     0.30800
H1759       H  0.95227928  0.06166078  0.34175764     0.38600
H1760       H  0.94648548  0.06645395  0.39656491     0.34100
C1761       C  0.07597222  0.87533040  0.85705416    -0.19600
C1762       C  0.08453560  0.87789075  0.89906336     0.36600
C1763       C  0.09487369  0.86692276  0.91434723    -0.25600
C1764       C  0.09664502  0.85342606  0.88897808     0.03000
C1765       C  0.08828251  0.85096949  0.84673602     0.27800
C1766       C  0.07798051  0.86190869  0.83136244    -0.24700
N1767       N  0.08231824  0.89129313  0.92705605    -0.82100
H1768       H  0.10123450  0.86866887  0.94703375     0.13600
C1769       C  0.10684993  0.84165058  0.90784419     0.03000
N1770       N  0.09026156  0.83732276  0.81979184    -0.80700
H1771       H  0.07142871  0.85991304  0.79920748     0.18500
C1772       C  0.10087213  0.82753911  0.91927108    -0.25500
C1773       C  0.11016362  0.81576242  0.93495839     0.36500
C1774       C  0.12587236  0.81817185  0.93919049    -0.19600
C1775       C  0.13172341  0.83253545  0.92952709    -0.24800
C1776       C  0.12238440  0.84426998  0.91358718     0.27900
H1777       H  0.08886416  0.82570246  0.91559588     0.13600
N1778       N  0.10366488  0.80139489  0.94618062    -0.82100
H1779       H  0.14371151  0.83450539  0.93285984     0.18500
N1780       N  0.12865170  0.85870548  0.90201025    -0.80700
H1781       H  0.09206262  0.80144064  0.93977428     0.34100
H1782       H  0.10507270  0.79967747  0.98289239     0.38600
H1783       H  0.14025764  0.85880260  0.90830078     0.34100
H1784       H  0.12714576  0.86038126  0.86531555     0.30800
H1785       H  0.08319768  0.83720383  0.78980677     0.34100
H1786       H  0.10130109  0.83722993  0.80700641     0.30800
H1787       H  0.07142802  0.89086877  0.94102227     0.38600
H1788       H  0.08965199  0.89149127  0.95638121     0.34100
C1789       C  0.04003984  0.02928125  0.71694098    -0.19600
C1790       C  0.03183163  0.01740714  0.69533442     0.36600
C1791       C  0.03344454  0.00274862  0.71300291    -0.25600
C1792       C  0.04319322  0.99961863  0.75114838     0.03000
C1793       C  0.05199971  0.01120840  0.77110918     0.27800
C1794       C  0.05034468  0.02594110  0.75378252    -0.24700
N1795       N  0.02174439  0.02022458  0.65604045    -0.82100
H1796       H  0.02695309  0.99366924  0.69723761     0.13600
C1797       C  0.04361761  0.98414476  0.77031037     0.03000
N1798       N  0.06228530  0.00802649  0.80958123    -0.80700
H1799       H  0.05679034  0.03491706  0.77025562     0.18500
C1800       C  0.05676872  0.97557699  0.76604207    -0.25500
C1801       C  0.05698256  0.96029898  0.77894288     0.36500
C1802       C  0.04378306  0.95361324  0.79763304    -0.19600
C1803       C  0.03085043  0.96251807  0.80374486    -0.24800
C1804       C  0.03061087  0.97766108  0.79005972     0.27900
H1805       H  0.06669458  0.98067339  0.75059309     0.13600
N1806       N  0.07038118  0.95154840  0.77156043    -0.82100
H1807       H  0.02071701  0.95757539  0.81828182     0.18500
N1808       N  0.01712557  0.98645190  0.79526564    -0.80700
H1809       H  0.07917382  0.95836057  0.75956037     0.34100
H1810       H  0.06812973  0.94393574  0.74388760     0.38600
H1811       H  0.00847758  0.97997280  0.80986140     0.34100
H1812       H  0.01941344  0.99504296  0.81983255     0.30800
H1813       H  0.06797763  0.01778594  0.82011442     0.34100
H1814       H  0.05593687  0.00456361  0.83894837     0.30800
H1815       H  0.02827335  0.02361779  0.62699059     0.38600
H1816       H  0.01629009  0.01033540  0.64543792     0.34100
C1817       C  0.92138335  0.87077329  0.34217853    -0.19600
C1818       C  0.90624530  0.87310189  0.32848628     0.36600
C1819       C  0.89540059  0.86212210  0.33951220    -0.25600
C1820       C  0.89928872  0.84906574  0.36490710     0.03000
C1821       C  0.91431342  0.84698495  0.37987109     0.27800
C1822       C  0.92523177  0.85769408  0.36753384    -0.24700
N1823       N  0.90195007  0.88646240  0.30303588    -0.82100
H1824       H  0.88385478  0.86368851  0.32795270     0.13600
C1825       C  0.88752842  0.83766076  0.37556374     0.03000
N1826       N  0.91835523  0.83414895  0.40832841    -0.80700
H1827       H  0.93677832  0.85599959  0.37891322     0.18500
C1828       C  0.88959945  0.82270910  0.36068820    -0.25500
C1829       C  0.87867413  0.81163477  0.36971554     0.36500
C1830       C  0.86533169  0.81564583  0.39407307    -0.19600
C1831       C  0.86326472  0.83062938  0.40859882    -0.24800
C1832       C  0.87427908  0.84162133  0.40014314     0.27900
H1833       H  0.89972213  0.81972314  0.34137885     0.13600
N1834       N  0.88099729  0.79645445  0.35349648    -0.82100
H1835       H  0.85310886  0.83373856  0.42751121     0.18500
N1836       N  0.87216710  0.85675483  0.41703912    -0.80700
H1837       H  0.89149319  0.79537754  0.33697929     0.34100
H1838       H  0.87292153  0.79419834  0.32722112     0.38600
H1839       H  0.86181388  0.85783565  0.43433688     0.34100
H1840       H  0.88048099  0.85889902  0.44272482     0.30800
H1841       H  0.92984452  0.83430280  0.41653061     0.34100
H1842       H  0.91264753  0.83504802  0.44083028     0.30800
H1843       H  0.90719600  0.88612849  0.26966381     0.38600
H1844       H  0.89035812  0.88654002  0.29645325     0.34100
C1845       C  0.95292345  0.95054859  0.28438104    -0.19600
C1846       C  0.93973711  0.95892248  0.29407051     0.36600
C1847       C  0.93882908  0.97405377  0.27950303    -0.25600
C1848       C  0.95076853  0.98100007  0.25540457     0.03000
C1849       C  0.96385647  0.97260686  0.24526438     0.27800
C1850       C  0.96487118  0.95758575  0.26039234    -0.24700
N1851       N  0.92739559  0.95215256  0.31914397    -0.82100
H1852       H  0.92887561  0.98057333  0.28785619     0.13600
C1853       C  0.94987726  0.99729059  0.24343422     0.03000
N1854       N  0.97600747  0.97935260  0.21913645    -0.80700
H1855       H  0.97496598  0.95124089  0.25239710     0.18500
C1856       C  0.96105651  0.00693199  0.26122419    -0.25500
C1857       C  0.96092327  0.02236883  0.25103702     0.36500
C1858       C  0.94936266  0.02838638  0.22184148    -0.19600
C1859       C  0.93790942  0.01881395  0.20504777    -0.24800
C1860       C  0.93809323  0.00329715  0.21531364     0.27900
H1861       H  0.96987662  0.00237542  0.28380912     0.13600
N1862       N  0.97236060  0.03197301  0.27105263    -0.82100
H1863       H  0.92899395  0.02338087  0.18289164     0.18500
N1864       N  0.92652399  0.99359839  0.19668896    -0.80700
H1865       H  0.98024970  0.02568976  0.29051465     0.34100
H1866       H  0.96713909  0.03914765  0.29546941     0.38600
H1867       H  0.91857495  0.99979514  0.17735866     0.34100
H1868       H  0.93158080  0.98620322  0.17247369     0.30800
H1869       H  0.98478085  0.97166731  0.21433426     0.34100
H1870       H  0.97195233  0.98200048  0.18503552     0.30800
H1871       H  0.93110861  0.94974481  0.35380676     0.38600
H1872       H  0.91849003  0.95975918  0.32262194     0.34100
C1873       C  0.01905421  0.89809678  0.67858095    -0.19600
C1874       C  0.02621552  0.90315372  0.63633608     0.36600
C1875       C  0.01833381  0.90275465  0.59264437    -0.25600
C1876       C  0.00363311  0.89718697  0.58989899     0.03000
C1877       C  0.99661962  0.89166468  0.63129504     0.27800
C1878       C  0.00438851  0.89217454  0.67521506    -0.24700
N1879       N  0.04127093  0.90905507  0.63785674    -0.82100
H1880       H  0.02362496  0.90693045  0.56045832     0.13600
C1881       C  0.99554153  0.89787618  0.54360016     0.03000
N1882       N  0.98157613  0.88576811  0.62862163    -0.80700
H1883       H  0.99882561  0.88817839  0.70713863     0.18500
C1884       C  0.99476289  0.88505702  0.51447316    -0.25500
C1885       C  0.98758620  0.88554580  0.46952954     0.36500
C1886       C  0.98117699  0.89921341  0.45349090    -0.19600
C1887       C  0.98186678  0.91196764  0.48315640    -0.24800
C1888       C  0.98899050  0.91143023  0.52803314     0.27900
H1889       H  0.99979515  0.87466864  0.52689169     0.13600
N1890       N  0.98661723  0.87219191  0.44058072    -0.82100
H1891       H  0.97694910  0.92245083  0.47109487     0.18500
N1892       N  0.98973245  0.92461507  0.55780794    -0.80700
H1893       H  0.99204576  0.86319490  0.45737023     0.34100
H1894       H  0.97525039  0.86924962  0.43795207     0.38600
H1895       H  0.98454306  0.93373333  0.54092130     0.34100
H1896       H  0.98351664  0.92243615  0.58867602     0.30800
H1897       H  0.97806436  0.88204560  0.66219761     0.34100
H1898       H  0.97441292  0.89460483  0.61909519     0.30800
H1899       H  0.04849295  0.90009526  0.64558070     0.38600
H1900       H  0.04446311  0.91304669  0.60425984     0.34100
C1901       C  0.97897469  0.89274338  0.17913264    -0.19600
C1902       C  0.99329700  0.88596973  0.17470677     0.36600
C1903       C  0.00040837  0.88574635  0.12989029    -0.25600
C1904       C  0.99360821  0.89233805  0.08972519     0.03000
C1905       C  0.97919160  0.89883604  0.09396040     0.27800
C1906       C  0.97191652  0.89869766  0.13835889    -0.24700
N1907       N  0.00063095  0.87948788  0.21566016    -0.82100
H1908       H  0.01141801  0.88063262  0.12634568     0.13600
C1909       C  0.00190341  0.89309594  0.04385890     0.03000
N1910       N  0.97225093  0.90607352  0.05356510    -0.80700
H1911       H  0.96098825  0.90399999  0.14160335     0.18500
C1912       C  0.99521119  0.88729261  0.00220047    -0.25500
C1913       C  0.00181290  0.88941369  0.95715258     0.36500
C1914       C  0.01561495  0.89723847  0.95392892    -0.19600
C1915       C  0.02262388  0.90241778  0.99601292    -0.24800
C1916       C  0.01588898  0.90051523  0.04087505     0.27900
H1917       H  0.98453059  0.88147723  0.00478658     0.13600
N1918       N  0.99433061  0.88399864  0.91482018    -0.82100
H1919       H  0.03333306  0.90819708  0.99388803     0.18500
N1920       N  0.02301197  0.90642006  0.08320798    -0.80700
H1921       H  0.98446955  0.87824612  0.92367579     0.34100
H1922       H  0.99100338  0.89338165  0.89495979     0.38600
H1923       H  0.03331688  0.91142157  0.07486840     0.34100
H1924       H  0.01612517  0.91495780  0.09668267     0.30800
H1925       H  0.96164612  0.91027657  0.06261128     0.34100
H1926       H  0.97888117  0.91535693  0.04463180     0.30800
H1927       H  0.99415181  0.87032645  0.22668374     0.38600
H1928       H  0.01118859  0.87521135  0.20640076     0.34100
C1929       C  0.57166837  0.37875397  0.35604703    -0.19600
C1930       C  0.58625452  0.37976552  0.33636193     0.36600
C1931       C  0.59711959  0.36885574  0.34838336    -0.25600
C1932       C  0.59371000  0.35711187  0.37989410     0.03000
C1933       C  0.57933394  0.35638548  0.40084634     0.27800
C1934       C  0.56839104  0.36705102  0.38800111    -0.24700
N1935       N  0.58992490  0.39168899  0.30384503    -0.82100
H1936       H  0.60827973  0.36944969  0.33303087     0.13600
C1937       C  0.60540365  0.34584064  0.39170690     0.03000
N1938       N  0.57612477  0.34527943  0.43671620    -0.80700
H1939       H  0.55732092  0.36644561  0.40398950     0.18500
C1940       C  0.61656270  0.34948725  0.42536896    -0.25500
C1941       C  0.62744374  0.33884775  0.43937005     0.36500
C1942       C  0.62698815  0.32422588  0.41952281    -0.19600
C1943       C  0.61602239  0.32077531  0.38481640    -0.24800
C1944       C  0.60537456  0.33150432  0.37010659     0.27900
H1945       H  0.61662146  0.36061717  0.44124662     0.13600
N1946       N  0.63871467  0.34276523  0.47424073    -0.82100
H1947       H  0.61589180  0.30969823  0.36856377     0.18500
N1948       N  0.59493280  0.32808434  0.33214390    -0.80700
H1949       H  0.63760013  0.35401434  0.48461804     0.34100
H1950       H  0.63674079  0.33629990  0.50474414     0.38600
H1951       H  0.59676525  0.31721587  0.31903827     0.34100
H1952       H  0.58406126  0.32815516  0.34608825     0.30800
H1953       H  0.56521892  0.34667842  0.44989606     0.34100
H1954       H  0.57639898  0.33466910  0.42072400     0.30800
H1955       H  0.58336926  0.39020000  0.27306726     0.38600
H1956       H  0.60115768  0.39089460  0.29314196     0.34100
C1957       C  0.62197439  0.17131000  0.92039962    -0.19600
C1958       C  0.60800161  0.17514557  0.89945675     0.36600
C1959       C  0.59775893  0.16370898  0.88736621    -0.25600
C1960       C  0.60116613  0.14852689  0.89561770     0.03000
C1961       C  0.61517403  0.14468500  0.91627995     0.27800
C1962       C  0.62549780  0.15611724  0.92798894    -0.24700
N1963       N  0.60440955  0.19059259  0.88940822    -0.82100
H1964       H  0.58712480  0.16662137  0.87070645     0.13600
C1965       C  0.59000116  0.13680052  0.88186464     0.03000
N1966       N  0.61876886  0.12921474  0.92581709    -0.80700
H1967       H  0.63623237  0.15317715  0.94393755     0.18500
C1968       C  0.59424749  0.12526475  0.85031532    -0.25500
C1969       C  0.58405267  0.11391188  0.83676959     0.36500
C1970       C  0.56924999  0.11417371  0.85487073    -0.19600
C1971       C  0.56486805  0.12597243  0.88525700    -0.24800
C1972       C  0.57514480  0.13716025  0.89952649     0.27900
H1973       H  0.60556464  0.12517007  0.83604359     0.13600
N1974       N  0.58862394  0.10223446  0.80429615    -0.82100
H1975       H  0.55352678  0.12615259  0.89933764     0.18500
N1976       N  0.57066511  0.14868878  0.93270114    -0.80700
H1977       H  0.59988632  0.10362116  0.79456588     0.34100
H1978       H  0.58225426  0.10341545  0.77301562     0.38600
H1979       H  0.55938213  0.14736428  0.94226588     0.34100
H1980       H  0.57700628  0.14727447  0.96394069     0.30800
H1981       H  0.62951563  0.12829525  0.94088980     0.34100
H1982       H  0.61119205  0.12533234  0.95147922     0.30800
H1983       H  0.61196414  0.19437266  0.86351900     0.38600
H1984       H  0.59366037  0.19148267  0.87433266     0.34100
C1985       C  0.64946791  0.23130160  0.81988838    -0.19600
C1986       C  0.63538227  0.23625958  0.80216624     0.36600
C1987       C  0.63474335  0.24397367  0.75834027    -0.25600
C1988       C  0.64782672  0.24669225  0.73196584     0.03000
C1989       C  0.66183538  0.24164495  0.74930385     0.27800
C1990       C  0.66251171  0.23400033  0.79305198    -0.24700
N1991       N  0.62178557  0.23323387  0.82809696    -0.82100
H1992       H  0.62401137  0.24780742  0.74444474     0.13600
C1993       C  0.64679101  0.25461690  0.68565906     0.03000
N1994       N  0.67530060  0.24427693  0.72224706    -0.80700
H1995       H  0.67332339  0.23019355  0.80637591     0.18500
C1996       C  0.65249046  0.26923699  0.68209177    -0.25500
C1997       C  0.65296382  0.27668134  0.63788987     0.36500
C1998       C  0.64758914  0.26927037  0.59629269    -0.19600
C1999       C  0.64148054  0.25474926  0.60039462    -0.24800
C2000       C  0.64099948  0.24736112  0.64475254     0.27900
H2001       H  0.65694538  0.27469300  0.71382939     0.13600
N2002       N  0.65937968  0.29149256  0.63502994    -0.82100
H2003       H  0.63735316  0.24902232  0.56871508     0.18500
N2004       N  0.63496681  0.23240811  0.64834520    -0.80700
H2005       H  0.66251229  0.29538228  0.66898961     0.34100
H2006       H  0.66928949  0.29065091  0.61534165     0.38600
H2007       H  0.63107693  0.22868075  0.61503530     0.34100
H2008       H  0.64377554  0.22523942  0.65814865     0.30800
H2009       H  0.68469970  0.23995727  0.74014891     0.34100
H2010       H  0.67434282  0.23827060  0.69019003     0.30800
H2011       H  0.62020013  0.22158177  0.82813318     0.38600
H2012       H  0.61247873  0.23783749  0.81043064     0.34100
C2013       C  0.65071016  0.22993166  0.09084234    -0.19600
C2014       C  0.64810530  0.24553255  0.09634682     0.36600
C2015       C  0.64946607  0.25211479  0.14198323    -0.25600
C2016       C  0.65328554  0.24343471  0.18206292     0.03000
C2017       C  0.65567287  0.22786201  0.17671272     0.27800
C2018       C  0.65421350  0.22126829  0.13134571    -0.24700
N2019       N  0.64402933  0.25461580  0.05588427    -0.82100
H2020       H  0.64743768  0.26405193  0.14647855     0.13600
C2021       C  0.65455834  0.25069006  0.22970383     0.03000
N2022       N  0.65986833  0.21886208  0.21728346    -0.80700
H2023       H  0.65632290  0.20932861  0.12743936     0.18500
C2024       C  0.64528860  0.24571208  0.26684114    -0.25500
C2025       C  0.64630544  0.25197214  0.31289700     0.36500
C2026       C  0.65668996  0.26374920  0.32179504    -0.19600
C2027       C  0.66594939  0.26870976  0.28429311    -0.24800
C2028       C  0.66505202  0.26225177  0.23847916     0.27900
H2029       H  0.63722585  0.23682819  0.25977353     0.13600
N2030       N  0.63672371  0.24645228  0.35023593    -0.82100
H2031       H  0.67393862  0.27770436  0.29061918     0.18500
N2032       N  0.67479775  0.26732051  0.20090892    -0.80700
H2033       H  0.62929833  0.23831138  0.33698053     0.34100
H2034       H  0.64359251  0.24098084  0.37515000     0.38600
H2035       H  0.68179933  0.27597706  0.21312094     0.34100
H2036       H  0.68182554  0.25835116  0.19165149     0.30800
H2037       H  0.66114643  0.20758991  0.20736650     0.34100
H2038       H  0.67042093  0.22256411  0.22906883     0.30800
H2039       H  0.63347602  0.25097093  0.04392131     0.38600
H2040       H  0.64274868  0.26586727  0.06604887     0.34100
C2041       C  0.86163827  0.31805836  0.60359323    -0.19600
C2042       C  0.87203870  0.31660661  0.64172025     0.36600
C2043       C  0.88185148  0.32853811  0.65220976    -0.25600
C2044       C  0.88130533  0.34188203  0.62591188     0.03000
C2045       C  0.87061452  0.34361807  0.58909216     0.27800
C2046       C  0.86079653  0.33167655  0.57838210    -0.24700
N2047       N  0.87252162  0.30310347  0.66986667    -0.82100
H2048       H  0.89008308  0.32740526  0.68068122     0.13600
C2049       C  0.89270036  0.35354229  0.63546136     0.03000
N2050       N  0.87011830  0.35730407  0.56188239    -0.80700
H2051       H  0.85273319  0.33285718  0.54947256     0.18500
C2052       C  0.90635610  0.35283351  0.61084511    -0.25500
C2053       C  0.91784584  0.36327982  0.62004901     0.36500
C2054       C  0.91555854  0.37461123  0.65484198    -0.19600
C2055       C  0.90172073  0.37542988  0.67881047    -0.24800
C2056       C  0.89028346  0.36488548  0.66973456     0.27900
H2057       H  0.90805006  0.34402522  0.58454199     0.13600
N2058       N  0.93173762  0.36247753  0.59397321    -0.82100
H2059       H  0.89998356  0.38406903  0.70561900     0.18500
N2060       N  0.87643304  0.36535492  0.69607385    -0.80700
H2061       H  0.93162606  0.35337470  0.57022526     0.34100
H2062       H  0.93250301  0.37218307  0.57309979     0.38600
H2063       H  0.87657146  0.37423129  0.72066363     0.34100
H2064       H  0.86773535  0.36764173  0.67191601     0.30800
H2065       H  0.86176975  0.35667518  0.53550223     0.34100
H2066       H  0.86697082  0.36599404  0.58498972     0.30800
H2067       H  0.86227474  0.30226235  0.68790852     0.38600
H2068       H  0.88089523  0.30384121  0.69614841     0.34100
C2069       C  0.78387346  0.28705638  0.54268699    -0.19600
C2070       C  0.77641336  0.27812280  0.50798932     0.36600
C2071       C  0.76099758  0.28036456  0.49943050    -0.25600
C2072       C  0.75295816  0.29139093  0.52437365     0.03000
C2073       C  0.76035939  0.30047562  0.55836720     0.27800
C2074       C  0.77579354  0.29826116  0.56710557    -0.24700
N2075       N  0.78452251  0.26697681  0.48106709    -0.82100
H2076       H  0.75517875  0.27348405  0.47318914     0.13600
C2077       C  0.73667528  0.29301753  0.51495024     0.03000
N2078       N  0.75213068  0.31182869  0.58393772    -0.80700
H2079       H  0.78148941  0.30517614  0.59350217     0.18500
C2080       C  0.72644849  0.28707892  0.54777772    -0.25500
C2081       C  0.71093643  0.28719055  0.53813101     0.36500
C2082       C  0.70562173  0.29335893  0.49472050    -0.19600
C2083       C  0.71583257  0.29995660  0.46294693    -0.24800
C2084       C  0.73138215  0.29973136  0.47253182     0.27900
H2085       H  0.73063415  0.28207356  0.58052769     0.13600
N2086       N  0.70054159  0.28111188  0.57223376    -0.82100
H2087       H  0.71172668  0.30473172  0.42976568     0.18500
N2088       N  0.74187316  0.30594659  0.43898932    -0.80700
H2089       H  0.70628689  0.27684578  0.60198668     0.34100
H2090       H  0.69400218  0.29004572  0.58464878     0.38600
H2091       H  0.73618595  0.31033727  0.40935525     0.34100
H2092       H  0.74727322  0.31499185  0.45575013     0.30800
H2093       H  0.75920184  0.31749620  0.60791063     0.34100
H2094       H  0.74846106  0.31979024  0.55904062     0.30800
H2095       H  0.79234739  0.27262580  0.45983785     0.38600
H2096       H  0.77731166  0.26127584  0.45759225     0.34100
C2097       C  0.85734246  0.16286500  0.10885463    -0.19600
C2098       C  0.85383142  0.14739869  0.10481716     0.36600
C2099       C  0.86501692  0.13663612  0.11482030    -0.25600
C2100       C  0.87941357  0.14093303  0.13066424     0.03000
C2101       C  0.88270548  0.15636925  0.13642868     0.27800
C2102       C  0.87174241  0.16711235  0.12481941    -0.24700
N2103       N  0.83912627  0.14262444  0.08947871    -0.82100
H2104       H  0.86252476  0.12480973  0.10984552     0.13600
C2105       C  0.89108370  0.12924853  0.13991500     0.03000
N2106       N  0.89717019  0.16109138  0.15419420    -0.80700
H2107       H  0.87446642  0.17893115  0.12869157     0.18500
C2108       C  0.90525062  0.13072268  0.11842971    -0.25500
C2109       C  0.91684171  0.12038512  0.12745815     0.36500
C2110       C  0.91413431  0.10803668  0.15792705    -0.19600
C2111       C  0.89979395  0.10618583  0.17792811    -0.24800
C2112       C  0.88829839  0.11678458  0.16986090     0.27900
H2113       H  0.90727831  0.14002276  0.09435156     0.13600
N2114       N  0.93128896  0.12231142  0.10530138    -0.82100
H2115       H  0.89770099  0.09670108  0.20120804     0.18500
N2116       N  0.87394262  0.11510227  0.19274646    -0.80700
H2117       H  0.93146792  0.13207347  0.08455570     0.34100
H2118       H  0.93288319  0.11329141  0.08179726     0.38600
H2119       H  0.87370799  0.10531325  0.21335304     0.34100
H2120       H  0.87262916  0.12412670  0.21640196     0.30800
H2121       H  0.89782360  0.17282069  0.15593030     0.34100
H2122       H  0.89822116  0.15716812  0.18925004     0.30800
H2123       H  0.83160408  0.14529458  0.11685876     0.38600
H2124       H  0.83873938  0.13092658  0.08575034     0.34100
C2125       C  0.77910417  0.19098181  0.03856577    -0.19600
C2126       C  0.77432388  0.18320427  0.99692278     0.36600
C2127       C  0.75890904  0.18288826  0.98508363    -0.25600
C2128       C  0.74825936  0.19021516  0.01372022     0.03000
C2129       C  0.75294552  0.19758987  0.05585803     0.27800
C2130       C  0.76828589  0.19785978  0.06786747    -0.24700
N2131       N  0.78508215  0.17606893  0.96602762    -0.82100
H2132       H  0.75518888  0.17722505  0.95277779     0.13600
C2133       C  0.73230922  0.19086299  0.99817650     0.03000
N2134       N  0.74212482  0.20507794  0.08570487    -0.80700
H2135       H  0.77184256  0.20375910  0.09992071     0.18500
C2136       C  0.72126068  0.18400243  0.02624446    -0.25500
C2137       C  0.70588135  0.18580623  0.01576660     0.36500
C2138       C  0.70148792  0.19461814  0.97599475    -0.19600
C2139       C  0.71265010  0.20101056  0.94693175    -0.24800
C2140       C  0.72801481  0.19924599  0.95767580     0.27900
H2141       H  0.72467700  0.17759745  0.05736067     0.13600
N2142       N  0.69478222  0.17915644  0.04641587    -0.82100
H2143       H  0.70937271  0.20769956  0.91628569     0.18500
N2144       N  0.73926719  0.20626083  0.92842607    -0.80700
H2145       H  0.69992667  0.17270070  0.07305923     0.34100
H2146       H  0.68920040  0.18791182  0.06398517     0.38600
H2147       H  0.73425689  0.21194543  0.89981920     0.34100
H2148       H  0.74469949  0.21440406  0.94928736     0.30800
H2149       H  0.74738698  0.20986557  0.11558518     0.34100
H2150       H  0.73754641  0.21396617  0.06603756     0.30800
H2151       H  0.79160190  0.18454405  0.95062039     0.38600
H2152       H  0.77963410  0.17055109  0.93779408     0.34100
C2153       C  0.83658887  0.22058828  0.93312533    -0.19600
C2154       C  0.83758438  0.21210105  0.89028248     0.36600
C2155       C  0.83798864  0.21960242  0.84608268    -0.25600
C2156       C  0.83779719  0.23534440  0.84363458     0.03000
C2157       C  0.83768237  0.24381889  0.88632132     0.27800
C2158       C  0.83694821  0.23637148  0.93050255    -0.24700
N2159       N  0.83765973  0.19593728  0.89142310    -0.82100
H2160       H  0.83810425  0.21313127  0.81320285     0.13600
C2161       C  0.83684306  0.24278522  0.79614941     0.03000
N2162       N  0.83815575  0.25996859  0.88453356    -0.80700
H2163       H  0.83643635  0.24297324  0.96306679     0.18500
C2164       C  0.82446114  0.25202630  0.78611647    -0.25500
C2165       C  0.82288862  0.25922164  0.74170286     0.36500
C2166       C  0.83391996  0.25696551  0.70590876    -0.19600
C2167       C  0.84621460  0.24747576  0.71588613    -0.24800
C2168       C  0.84782994  0.24044532  0.76068374     0.27900
H2169       H  0.81592848  0.25361209  0.81324274     0.13600
N2170       N  0.80996550  0.26855865  0.73285555    -0.82100
H2171       H  0.85474322  0.24570180  0.68889083     0.18500
N2172       N  0.86063609  0.23104981  0.77049066    -0.80700
H2173       H  0.80232439  0.26783098  0.76108179     0.34100
H2174       H  0.81367228  0.27971409  0.73249303     0.38600
H2175       H  0.86765727  0.23042311  0.74065084     0.34100
H2176       H  0.86688328  0.23620624  0.79772174     0.30800
H2177       H  0.83792667  0.26453444  0.91901246     0.34100
H2178       H  0.84848570  0.26303219  0.86968458     0.30800
H2179       H  0.84785267  0.19259703  0.90688240     0.38600
H2180       H  0.83759453  0.19150077  0.85676014     0.34100
C2181       C  0.84045181  0.26222931  0.42659316    -0.19600
C2182       C  0.84723767  0.24810539  0.41785081     0.36600
C2183       C  0.84656689  0.24182294  0.37160588    -0.25600
C2184       C  0.83929687  0.24936606  0.33406787     0.03000
C2185       C  0.83319014  0.26375616  0.34212218     0.27800
C2186       C  0.83383804  0.27004635  0.38821109    -0.24700
N2187       N  0.85457140  0.24009310  0.45593788    -0.82100
H2188       H  0.85131228  0.23078336  0.36508223     0.13600
C2189       C  0.83706175  0.24158864  0.28756936     0.03000
N2190       N  0.82607579  0.27176018  0.30357365    -0.80700
H2191       H  0.82865134  0.28089774  0.39447140     0.18500
C2192       C  0.82239168  0.23780329  0.27332926    -0.25500
C2193       C  0.81966021  0.22979440  0.23077284     0.36500
C2194       C  0.83190848  0.22565004  0.20148162    -0.19600
C2195       C  0.84657059  0.22982457  0.21518910    -0.24800
C2196       C  0.84927948  0.23769072  0.25810443     0.27900
H2197       H  0.81303969  0.24090784  0.29606774     0.13600
N2198       N  0.80448139  0.22628881  0.21666910    -0.82100
H2199       H  0.85597511  0.22671789  0.19268349     0.18500
N2200       N  0.86434213  0.24175470  0.27188777    -0.80700
H2201       H  0.79680264  0.23126594  0.24011166     0.34100
H2202       H  0.80304558  0.21468531  0.22028288     0.38600
H2203       H  0.87206286  0.23800676  0.24638897     0.34100
H2204       H  0.86496989  0.25349723  0.27215784     0.30800
H2205       H  0.82200914  0.28214917  0.31543604     0.34100
H2206       H  0.83433508  0.27405906  0.27810444     0.30800
H2207       H  0.86387022  0.24647235  0.46675472     0.38600
H2208       H  0.85878780  0.22981631  0.44362439     0.34100
loop_ 
_geom_bond_atom_site_label_1 
_geom_bond_atom_site_label_2 
_geom_bond_distance 
_geom_bond_site_symmetry_2 
_ccdc_geom_bond_type 
O1            C4   1.266   1_554  A
O1           Cd6   2.473       .  S
C2           O11   1.266       .  A
C2            O7   1.266       .  A
C2         C2194   1.482       .  S
O3            C9   1.266       .  A
O3           Cd6   2.484       .  S
C4           O12   1.263       .  A
C4         C2153   1.488       .  S
C5           O10   1.266       .  A
C5            O8   1.263       .  A
C5         C2097   1.484       .  S
Cd6          O13   2.450       .  S
Cd6          O12   2.466   1_554  S
Cd6          O11   2.468       .  S
Cd6           O7   2.468       .  S
Cd6          O10   2.484       .  S
Cd6           O8   2.438       .  S
C9           O13   1.265       .  A
C9         C2125   1.485       .  S
O14          C17   1.268       .  A
O14         Cd19   2.494       .  S
C15          O24   1.264       .  A
C15          O20   1.267       .  A
C15        C2181   1.487       .  S
O16          C22   1.267       .  A
O16         Cd19   2.472       .  S
C17          O25   1.264       .  A
C17        C2166   1.491       .  S
C18          O23   1.265       .  A
C18          O21   1.264       .  A
C18        C2041   1.478       .  S
Cd19         O26   2.440       .  S
Cd19         O25   2.445       .  S
Cd19         O24   2.456       .  S
Cd19         O20   2.485       .  S
Cd19         O23   2.476       .  S
Cd19         O21   2.448       .  S
C22          O26   1.265       .  A
C22        C2069   1.480       .  S
O27          C30   1.265       .  A
O27         Cd32   2.490   1_554  S
C28          O37   1.265       .  A
C28          O33   1.266       .  A
C28        C1985   1.481       .  S
O29          C35   1.266       .  A
O29         Cd32   2.461       .  S
C30          O38   1.263       .  A
C30        C2013   1.484       .  S
C31          O36   1.265       .  A
C31          O34   1.264       .  A
C31        C1957   1.479       .  S
Cd32         O39   2.463       .  S
Cd32         O38   2.448   1_556  S
Cd32         O37   2.443       .  S
Cd32         O33   2.472       .  S
Cd32         O36   2.476       .  S
Cd32         O34   2.451       .  S
C35          O39   1.266       .  A
C35        C2138   1.485       .  S
O40          C43   1.265       .  A
O40         Cd45   2.461       .  S
C41          O50   1.266       .  A
C41          O46   1.267       .  A
C41        C1998   1.484       .  S
O42          C48   1.268       .  A
O42         Cd45   2.493       .  S
C43          O51   1.266       .  A
C43        C2026   1.487       .  S
C44          O49   1.267       .  A
C44          O47   1.264       .  A
C44        C1942   1.482       .  S
Cd45         O52   2.434       .  S
Cd45         O51   2.458       .  S
Cd45         O50   2.456       .  S
Cd45         O46   2.468       .  S
Cd45         O49   2.486       .  S
Cd45         O47   2.444       .  S
C48          O52   1.263       .  A
C48        C2082   1.476       .  S
O53          C56   1.266       .  A
O53         Cd58   2.459       .  S
C54          O63   1.265       .  A
C54          O59   1.265       .  A
C54        C1886   1.482       .  S
O55          C61   1.268       .  A
O55         Cd58   2.480       .  S
C56          O64   1.266       .  A
C56        C1901   1.481       .  S
C57          O62   1.267       .  A
C57          O60   1.264       .  A
C57        C1817   1.483       .  S
Cd58         O65   2.455       .  S
Cd58         O64   2.456       .  S
Cd58         O63   2.462       .  S
Cd58         O59   2.470       .  S
Cd58         O62   2.492       .  S
Cd58         O60   2.449       .  S
C61          O65   1.266       .  A
C61        C1845   1.488       .  S
O66          C69   1.268       .  A
O66         Cd71   2.477       .  S
C67          O76   1.264       .  A
C67          O72   1.266       .  A
C67        C1914   1.482       .  S
O68          C74   1.264       .  A
O68         Cd71   2.463       .  S
C69          O77   1.266       .  A
C69        C1873   1.491       .  S
C70          O75   1.267       .  A
C70          O73   1.266       .  A
C70        C1802   1.485       .  S
Cd71         O78   2.451       .  S
Cd71         O77   2.464       .  S
Cd71         O76   2.443       .  S
Cd71         O72   2.473       .  S
Cd71         O75   2.466       .  S
Cd71         O73   2.434       .  S
C74          O78   1.265       .  A
C74        C1761   1.479       .  S
O79          C82   1.267       .  A
O79         Cd84   2.460       .  S
C80          O89   1.265       .  A
C80          O85   1.267       .  A
C80        C1705   1.477       .  S
O81          C87   1.269       .  A
O81         Cd84   2.504       .  S
C82          O90   1.265       .  A
C82        C1733   1.479       .  S
C83          O88   1.269       .  A
C83          O86   1.265       .  A
C83        C2110   1.481       .  S
Cd84         O91   2.434       .  S
Cd84         O90   2.429       .  S
Cd84         O89   2.428       .  S
Cd84         O85   2.473       .  S
Cd84         O88   2.483       .  S
Cd84         O86   2.438       .  S
C87          O91   1.263       .  A
C87        C1858   1.485       .  S
O92          C95   1.267       .  A
O92         Cd97   2.476       .  S
C93         O102   1.266       .  A
C93          O98   1.264       .  A
C93        C1718   1.478       .  S
O94         C100   1.266       .  A
O94         Cd97   2.467       .  S
C95         O103   1.264       .  A
C95        C1746   1.488       .  S
C96         O101   1.266       .  A
C96          O99   1.267       .  A
C96        C1677   1.488       .  S
Cd97        O104   2.447       .  S
Cd97        O103   2.445       .  S
Cd97        O102   2.465       .  S
Cd97         O98   2.447       .  S
Cd97        O101   2.456       .  S
Cd97         O99   2.455       .  S
C100        O104   1.264       .  A
C100       C1789   1.485       .  S
O105        C108   1.264       .  A
O105       Cd110   2.478       .  S
C106        O115   1.268       .  A
C106        O111   1.266       .  A
C106       C1621   1.489       .  S
O107        C113   1.265       .  A
O107       Cd110   2.476       .  S
C108        O116   1.264       .  A
C108       C1649   1.487       .  S
C109        O114   1.267       .  A
C109        O112   1.265       .  A
C109       C1593   1.481       .  S
Cd110       O117   2.452       .  S
Cd110       O116   2.475       .  S
Cd110       O115   2.460       .  S
Cd110       O111   2.456       .  S
Cd110       O114   2.480       .  S
Cd110       O112   2.438       .  S
C113        O117   1.263       .  A
C113       C2054   1.477       .  S
O118        C121   1.265       .  A
O118       Cd123   2.484       .  S
C119        O128   1.263       .  A
C119        O124   1.266       .  A
C119       C1662   1.486       .  S
O120        C126   1.268       .  A
O120       Cd123   2.479       .  S
C121        O129   1.264       .  A
C121       C1634   1.490       .  S
C122        O127   1.265       .  A
C122        O125   1.264       .  A
C122       C1537   1.487       .  S
Cd123       O130   2.427       .  S
Cd123       O129   2.469       .  S
Cd123       O128   2.463       .  S
Cd123       O124   2.495       .  S
Cd123       O127   2.483       .  S
Cd123       O125   2.458       .  S
C126        O130   1.265       .  A
C126       C1578   1.480       .  S
O131        C134   1.268       .  A
O131       Cd136   2.503       .  S
C132        O141   1.265       .  A
C132        O137   1.266       .  A
C132       C1522   1.492       .  S
O133        C139   1.266       .  A
O133       Cd136   2.482       .  S
C134        O142   1.264       .  A
C134       C1481   1.492       .  S
C135        O140   1.265       .  A
C135        O138   1.267       .  A
C135       C1453   1.488       .  S
Cd136       O143   2.441       .  S
Cd136       O142   2.462       .  S
Cd136       O141   2.479       .  S
Cd136       O137   2.473       .  S
Cd136       O140   2.448       .  S
Cd136       O138   2.467       .  S
C139        O143   1.265       .  A
C139       C1606   1.486       .  S
O144        C147   1.266       .  A
O144       Cd149   2.491       .  S
C145        O154   1.266       .  A
C145        O150   1.266       .  A
C145       C1509   1.484       .  S
O146        C152   1.263       .  A
O146       Cd149   2.471       .  S
C147        O155   1.263       .  A
C147       C1494   1.490       .  S
C148        O153   1.266       .  A
C148        O151   1.266       .  A
C148       C1438   1.487       .  S
Cd149       O156   2.484       .  S
Cd149       O155   2.454       .  S
Cd149       O154   2.467       .  S
Cd149       O150   2.472       .  S
Cd149       O153   2.475       .  S
Cd149       O151   2.457       .  S
C152        O156   1.264       .  A
C152       C1565   1.482       .  S
O157        C160   1.265       .  A
O157       Cd162   2.475       .  S
C158        O167   1.266       .  A
C158        O163   1.268       .  A
C158       C1397   1.480       .  S
O159        C165   1.264       .  A
O159       Cd162   2.477       .  S
C160        O168   1.264       .  A
C160       C1382   1.490       .  S
C161        O166   1.267       .  A
C161        O164   1.265       .  A
C161       C1830   1.483       .  S
Cd162       O169   2.470       .  S
Cd162       O168   2.467       .  S
Cd162       O167   2.447       .  S
Cd162       O163   2.470       .  S
Cd162       O166   2.461       .  S
Cd162       O164   2.469       .  S
C165        O169   1.264       .  A
C165       C1341   1.482       .  S
O170        C173   1.266   1_556  A
O170       Cd175   2.466       .  S
C171        O180   1.265       .  A
C171        O176   1.266       .  A
C171       C1369   1.489       .  S
O172        C178   1.268       .  A
O172       Cd175   2.488       .  S
C173        O181   1.264       .  A
C173       C1410   1.488       .  S
C174        O179   1.266       .  A
C174        O177   1.264       .  A
C174       C1313   1.493       .  S
Cd175       O182   2.447       .  S
Cd175       O181   2.469   1_556  S
Cd175       O180   2.461       .  S
Cd175       O176   2.489       .  S
Cd175       O179   2.505       .  S
Cd175       O177   2.453       .  S
C178        O182   1.264       .  A
C178       C1466   1.487       .  S
O183        C186   1.267       .  A
O183       Cd188   2.481       .  S
C184        O193   1.266       .  A
C184        O189   1.267       .  A
C184       C1298   1.492       .  S
O185        C191   1.267       .  A
O185       Cd188   2.489       .  S
C186        O194   1.264       .  A
C186       C1257   1.487       .  S
C187        O192   1.265       .  A
C187        O190   1.265       .  A
C187       C1242   1.486       .  S
Cd188       O195   2.457       .  S
Cd188       O194   2.463       .  S
Cd188       O193   2.464       .  S
Cd188       O189   2.492       .  S
Cd188       O192   2.486       .  S
Cd188       O190   2.479       .  S
C191        O195   1.264       .  A
C191       C1354   1.485       .  S
O196        C199   1.268       .  A
O196       Cd201   2.482       .  S
C197        O206   1.263       .  A
C197        O202   1.267   1_556  A
C197       C1285   1.488       .  S
O198        C204   1.267       .  A
O198       Cd201   2.474       .  S
C199        O207   1.266       .  A
C199       C1270   1.488       .  S
C200        O205   1.266       .  A
C200        O203   1.264       .  A
C200       C1201   1.484       .  S
Cd201       O208   2.456       .  S
Cd201       O207   2.465       .  S
Cd201       O206   2.462   1_554  S
Cd201       O202   2.508       .  S
Cd201       O205   2.495       .  S
Cd201       O203   2.459       .  S
C204        O208   1.266       .  A
C204       C1326   1.485       .  S
O209        C212   1.267       .  A
O209       Cd214   2.489       .  S
C210        O219   1.267       .  A
C210        O215   1.266   1_556  A
C210       C1145   1.494       .  S
O211        C217   1.267       .  A
O211       Cd214   2.493       .  S
C212        O220   1.263       .  A
C212       C1173   1.492       .  S
C213        O218   1.267       .  A
C213        O216   1.264       .  A
C213       C1102   1.485       .  S
Cd214       O221   2.444       .  S
Cd214       O220   2.458       .  S
Cd214       O219   2.480   1_554  S
Cd214       O215   2.474       .  S
Cd214       O218   2.500       .  S
Cd214       O216   2.443       .  S
C217        O221   1.264       .  A
C217       C1117   1.485       .  S
O222        C225   1.265       .  A
O222       Cd227   2.488       .  S
C223        O232   1.265       .  A
C223        O228   1.267       .  A
C223       C1186   1.491       .  S
O224        C230   1.266       .  A
O224       Cd227   2.474       .  S
C225        O233   1.263       .  A
C225       C1158   1.483       .  S
C226        O231   1.268       .  A
C226        O229   1.263       .  A
C226       C1061   1.479       .  S
Cd227       O234   2.463       .  S
Cd227       O233   2.478       .  S
Cd227       O232   2.480       .  S
Cd227       O228   2.466       .  S
Cd227       O231   2.500       .  S
Cd227       O229   2.414       .  S
C230        O234   1.267       .  A
C230       C1033   1.485       .  S
O235        C238   1.267       .  A
O235       Cd240   2.495       .  S
C236        O245   1.264       .  A
C236        O241   1.268       .  A
C236        C977   1.488       .  S
O237        C243   1.269       .  A
O237       Cd240   2.490       .  S
C238        O246   1.263       .  A
C238       C1005   1.491       .  S
C239        O244   1.267       .  A
C239        O242   1.263       .  A
C239       C1774   1.485       .  S
Cd240       O247   2.436       .  S
Cd240       O246   2.451       .  S
Cd240       O245   2.453   1_556  S
Cd240       O241   2.470   1_556  S
Cd240       O244   2.477       .  S
Cd240       O242   2.444       .  S
C243        O247   1.265       .  A
C243       C1130   1.482       .  S
O248        C251   1.267       .  A
O248       Cd253   2.473       .  S
C249        O258   1.264       .  A
C249        O254   1.266       .  A
C249        C990   1.483       .  S
O250        C256   1.268       .  A
O250       Cd253   2.480       .  S
C251        O259   1.264       .  A
C251       C1018   1.488       .  S
C252        O257   1.266       .  A
C252        O255   1.265       .  A
C252       C1425   1.487       .  S
Cd253       O260   2.439       .  S
Cd253       O259   2.453       .  S
Cd253       O258   2.454       .  S
Cd253       O254   2.481       .  S
Cd253       O257   2.474       .  S
Cd253       O255   2.479       .  S
C256        O260   1.264       .  A
C256       C1074   1.482       .  S
O261        C264   1.268       .  A
O261       Cd266   2.501       .  S
C262        O271   1.265       .  A
C262        O267   1.266       .  A
C262        C921   1.487       .  S
O263        C269   1.266       .  A
O263       Cd266   2.498       .  S
C264        O272   1.264       .  A
C264        C949   1.490       .  S
C265        O270   1.267       .  A
C265        O268   1.263       .  A
C265        C865   1.496       .  S
Cd266       O273   2.454       .  S
Cd266       O272   2.465       .  S
Cd266       O271   2.475       .  S
Cd266       O267   2.480       .  S
Cd266       O270   2.512       .  S
Cd266       O268   2.475       .  S
C269        O273   1.264       .  A
C269        C893   1.490       .  S
O274        C277   1.267   1_556  A
O274       Cd279   2.494       .  S
C275        O284   1.266       .  A
C275        O280   1.268       .  A
C275        C934   1.489       .  S
O276        C282   1.265       .  A
O276       Cd279   2.487       .  S
C277        O285   1.264       .  A
C277        C962   1.495       .  S
C278        O283   1.266       .  A
C278        O281   1.265       .  A
C278        C822   1.484       .  S
Cd279       O286   2.459       .  S
Cd279       O285   2.474   1_556  S
Cd279       O284   2.458       .  S
Cd279       O280   2.486       .  S
Cd279       O283   2.481       .  S
Cd279       O281   2.460       .  S
C282        O286   1.265       .  A
C282        C837   1.490       .  S
O287        C290   1.267       .  A
O287       Cd292   2.497       .  S
C288        O297   1.267       .  A
C288        O293   1.268       .  A
C288        C753   1.495       .  S
O289        C295   1.270       .  A
O289       Cd292   2.510       .  S
C290        O298   1.262       .  A
C290        C781   1.491       .  S
C291        O296   1.267       .  A
C291        O294   1.264       .  A
C291       C1690   1.492       .  S
Cd292       O299   2.439       .  S
Cd292       O298   2.463       .  S
Cd292       O297   2.462       .  S
Cd292       O293   2.486       .  S
Cd292       O296   2.495       .  S
Cd292       O294   2.477       .  S
C295        O299   1.263       .  A
C295        C906   1.494       .  S
O300        C303   1.266       .  A
O300       Cd305   2.496   1_556  S
C301        O310   1.265       .  A
C301        O306   1.266       .  A
C301        C766   1.492       .  S
O302        C308   1.264       .  A
O302       Cd305   2.472       .  S
C303        O311   1.262       .  A
C303        C794   1.491       .  S
C304        O309   1.266       .  A
C304        O307   1.265       .  A
C304       C1550   1.481       .  S
Cd305       O312   2.465       .  S
Cd305       O311   2.462   1_554  S
Cd305       O310   2.465       .  S
Cd305       O306   2.481       .  S
Cd305       O309   2.477       .  S
Cd305       O307   2.448       .  S
C308        O312   1.265       .  A
C308        C850   1.486       .  S
O313        C316   1.267       .  A
O313       Cd318   2.474       .  S
C314        O323   1.264       .  A
C314        O319   1.266       .  A
C314        C697   1.490       .  S
O315        C321   1.269       .  A
O315       Cd318   2.491       .  S
C316        O324   1.266       .  A
C316        C738   1.485       .  S
C317        O322   1.267       .  A
C317        O320   1.262       .  A
C317       C1214   1.478       .  S
Cd318       O325   2.442       .  S
Cd318       O324   2.448       .  S
Cd318       O323   2.465       .  S
Cd318       O319   2.490       .  S
Cd318       O322   2.496       .  S
Cd318       O320   2.445       .  S
C321        O325   1.265       .  A
C321        C669   1.491       .  S
O326        C329   1.265       .  A
O326       Cd331   2.446       .  S
C327        O336   1.265       .  A
C327        O332   1.264       .  A
C327        C710   1.490       .  S
O328        C334   1.267       .  A
O328       Cd331   2.498       .  S
C329        O337   1.267       .  A
C329        C725   1.487       .  S
C330        O335   1.266       .  A
C330        O333   1.267       .  A
C330       C1046   1.490       .  S
Cd331       O338   2.457       .  S
Cd331       O337   2.478       .  S
Cd331       O336   2.473       .  S
Cd331       O332   2.496       .  S
Cd331       O335   2.463       .  S
Cd331       O333   2.464       .  S
C334        O338   1.264       .  A
C334        C641   1.486       .  S
O339        C342   1.268       .  A
O339       Cd344   2.480       .  S
C340        O349   1.264       .  A
C340        O345   1.264       .  A
C340        C585   1.484       .  S
O341        C347   1.265       .  A
O341       Cd344   2.481       .  S
C342        O350   1.268       .  A
C342        C613   1.491       .  S
C343        O348   1.267       .  A
C343        O346   1.264       .  A
C343       C1929   1.483       .  S
Cd344       O351   2.464       .  S
Cd344       O350   2.461       .  S
Cd344       O349   2.478       .  S
Cd344       O345   2.462       .  S
Cd344       O348   2.496       .  S
Cd344       O346   2.454       .  S
C347        O351   1.264       .  A
C347        C682   1.485       .  S
O352        C355   1.267       .  A
O352       Cd357   2.482       .  S
C353        O362   1.264       .  A
C353        O358   1.267       .  A
C353        C598   1.484       .  S
O354        C360   1.267       .  A
O354       Cd357   2.493       .  S
C355        O363   1.266       .  A
C355        C626   1.493       .  S
C356        O361   1.267       .  A
C356        O359   1.266       .  A
C356        C809   1.487       .  S
Cd357       O364   2.431       .  S
Cd357       O363   2.462       .  S
Cd357       O362   2.451       .  S
Cd357       O358   2.483       .  S
Cd357       O361   2.473       .  S
Cd357       O359   2.461       .  S
C360        O364   1.264       .  A
C360        C654   1.483       .  S
O365        C368   1.266       .  A
O365       Cd370   2.524       .  S
C366        O375   1.264       .  A
C366        O371   1.266       .  A
C366        C542   1.493       .  S
O367        C373   1.267       .  A
O367       Cd370   2.481       .  S
C368        O376   1.263       .  A
C368        C557   1.493       .  S
C369        O374   1.265       .  A
C369        O372   1.265       .  A
C369       C1229   1.494       .  S
Cd370       O377   2.480       .  S
Cd370       O376   2.475       .  S
Cd370       O375   2.474       .  S
Cd370       O371   2.493       .  S
Cd370       O374   2.497       .  S
Cd370       O372   2.471       .  S
C373        O377   1.266       .  A
C373        C501   1.488       .  S
O378        C381   1.267       .  A
O378       Cd383   2.465       .  S
C379        O388   1.265       .  A
C379        O384   1.264       .  A
C379        C529   1.495       .  S
O380        C386   1.268       .  A
O380       Cd383   2.494       .  S
C381        O389   1.268       .  A
C381        C570   1.492       .  S
C382        O387   1.267       .  A
C382        O385   1.264       .  A
C382       C1089   1.489       .  S
Cd383       O390   2.455       .  S
Cd383       O389   2.476       .  S
Cd383       O388   2.480       .  S
Cd383       O384   2.492       .  S
Cd383       O387   2.514       .  S
Cd383       O385   2.467       .  S
C386        O390   1.265       .  A
C386        C473   1.489       .  S
O391        C394   1.265       .  A
O391       Cd396   2.461       .  S
C392        O401   1.266       .  A
C392        O397   1.266       .  A
C392        C445   1.489       .  S
O393        C399   1.267       .  A
O393       Cd396   2.484       .  S
C394        O402   1.266       .  A
C394        C417   1.484       .  S
C395        O400   1.268       .  A
C395        O398   1.263       .  A
C395        C486   1.492       .  S
Cd396       O403   2.466       .  S
Cd396       O402   2.482       .  S
Cd396       O401   2.458       .  S
Cd396       O397   2.469       .  S
Cd396       O400   2.506       .  S
Cd396       O398   2.448       .  S
C399        O403   1.266       .  A
C399        C878   1.494       .  S
O404        C407   1.265       .  A
O404       Cd409   2.477       .  S
C405        O414   1.267       .  A
C405        O410   1.267       .  A
C405        C430   1.485       .  S
O406        C412   1.266       .  A
O406       Cd409   2.483       .  S
C407        O415   1.264       .  A
C407        C458   1.486       .  S
C408        O413   1.266       .  A
C408        O411   1.265       .  A
C408       C1970   1.482       .  S
Cd409       O416   2.465       .  S
Cd409       O415   2.460       .  S
Cd409       O414   2.460       .  S
Cd409       O410   2.466       .  S
Cd409       O413   2.477       .  S
Cd409       O411   2.474       .  S
C412        O416   1.264       .  A
C412        C514   1.484       .  S
C417        C418   1.414       .  A
C417        C422   1.405       .  A
C418        C419   1.405       .  A
C418        N423   1.438       .  S
C419        C420   1.404       .  A
C419        H424   1.083       .  S
C420        C425   1.494       .  S
C420        C421   1.414       .  A
C421        C422   1.409       .  A
C421        N426   1.438       .  S
C422        H427   1.084       .  S
N423        H443   1.046       .  S
N423        H444   1.046       .  S
C425        C428   1.405       .  A
C425        C432   1.414       .  A
N426        H441   1.046       .  S
N426        H442   1.046       .  S
C428        C429   1.407   1_554  A
C428        H433   1.083       .  S
C429        C430   1.414       .  A
C429        N434   1.438       .  S
C430        C431   1.405   1_556  A
C431        C432   1.406       .  A
C431        H435   1.084       .  S
C432        N436   1.438       .  S
N434        H437   1.046       .  S
N434        H438   1.046       .  S
N436        H439   1.046       .  S
N436        H440   1.045       .  S
C445        C446   1.417       .  A
C445        C450   1.408       .  A
C446        C447   1.406       .  A
C446        N451   1.438       .  S
C447        C448   1.401       .  A
C447        H452   1.084       .  S
C448        C453   1.483       .  S
C448        C449   1.408       .  A
C449        C450   1.405       .  A
C449        N454   1.438       .  S
C450        H455   1.083       .  S
N451        H471   1.045       .  S
N451        H472   1.046       .  S
C453        C456   1.402       .  A
C453        C460   1.409       .  A
N454        H469   1.046       .  S
N454        H470   1.046       .  S
C456        C457   1.407       .  A
C456        H461   1.084       .  S
C457        C458   1.415       .  A
C457        N462   1.437       .  S
C458        C459   1.406       .  A
C459        C460   1.404       .  A
C459        H463   1.083       .  S
C460        N464   1.438       .  S
N462        H465   1.046       .  S
N462        H466   1.046       .  S
N464        H467   1.046       .  S
N464        H468   1.046       .  S
C473        C474   1.416       .  A
C473        C478   1.407       .  A
C474        C475   1.410       .  A
C474        N479   1.437       .  S
C475        C476   1.402       .  A
C475        H480   1.084       .  S
C476        C481   1.485       .  S
C476        C477   1.408       .  A
C477        C478   1.405       .  A
C477        N482   1.438       .  S
C478        H483   1.083       .  S
N479        H499   1.046       .  S
N479        H500   1.046       .  S
C481        C484   1.400   1_565  A
C481        C488   1.409   1_565  A
N482        H497   1.046       .  S
N482        H498   1.046       .  S
C484        C485   1.405       .  A
C484        H489   1.084   1_545  S
C485        C486   1.418       .  A
C485        N490   1.438       .  S
C486        C487   1.409       .  A
C487        C488   1.410       .  A
C487        H491   1.083       .  S
C488        N492   1.437       .  S
N490        H493   1.046       .  S
N490        H494   1.046       .  S
N492        H495   1.046       .  S
N492        H496   1.046   1_545  S
C501        C502   1.415       .  A
C501        C506   1.407       .  A
C502        C503   1.408       .  A
C502        N507   1.438       .  S
C503        C504   1.402       .  A
C503        H508   1.084       .  S
C504        C509   1.483   1_565  S
C504        C505   1.407       .  A
C505        C506   1.407       .  A
C505        N510   1.437       .  S
C506        H511   1.083       .  S
N507        H527   1.046       .  S
N507        H528   1.046       .  S
C509        C512   1.402       .  A
C509        C516   1.408       .  A
N510        H525   1.046       .  S
N510        H526   1.046       .  S
C512        C513   1.407       .  A
C512        H517   1.084   1_545  S
C513        C514   1.414       .  A
C513        N518   1.438       .  S
C514        C515   1.406       .  A
C515        C516   1.408       .  A
C515        H519   1.083       .  S
C516        N520   1.437       .  S
N518        H521   1.046       .  S
N518        H522   1.046       .  S
N520        H523   1.046       .  S
N520        H524   1.046       .  S
C529        C530   1.420       .  A
C529        C534   1.409       .  A
C530        C531   1.409       .  A
C530        N535   1.438       .  S
C531        C532   1.401       .  A
C531        H536   1.084       .  S
C532        C537   1.484       .  S
C532        C533   1.407       .  A
C533        C534   1.407       .  A
C533        N538   1.438       .  S
C534        H539   1.083       .  S
N535        H555   1.046       .  S
N535        H556   1.046       .  S
C537        C540   1.400       .  A
C537        C544   1.407       .  A
N538        H553   1.046       .  S
N538        H554   1.046       .  S
C540        C541   1.407       .  A
C540        H545   1.084       .  S
C541        C542   1.418       .  A
C541        N546   1.438       .  S
C542        C543   1.409       .  A
C543        C544   1.409       .  A
C543        H547   1.083       .  S
C544        N548   1.437       .  S
N546        H549   1.046       .  S
N546        H550   1.045       .  S
N548        H551   1.046       .  S
N548        H552   1.046       .  S
C557        C558   1.415       .  A
C557        C562   1.407       .  A
C558        C559   1.411       .  A
C558        N563   1.437       .  S
C559        C560   1.405       .  A
C559        H564   1.084       .  S
C560        C565   1.492       .  S
C560        C561   1.410       .  A
C561        C562   1.407       .  A
C561        N566   1.438       .  S
C562        H567   1.083       .  S
N563        H583   1.046       .  S
N563        H584   1.046       .  S
C565        C568   1.403   1_556  A
C565        C572   1.410       .  A
N566        H581   1.046       .  S
N566        H582   1.046       .  S
C568        C569   1.409       .  A
C568        H573   1.084       .  S
C569        C570   1.417       .  A
C569        N574   1.438       .  S
C570        C571   1.407       .  A
C571        C572   1.408   1_554  A
C571        H575   1.083       .  S
C572        N576   1.438       .  S
N574        H577   1.046       .  S
N574        H578   1.046       .  S
N576        H579   1.046       .  S
N576        H580   1.046       .  S
C585        C586   1.414       .  A
C585        C590   1.405       .  A
C586        C587   1.406       .  A
C586        N591   1.438       .  S
C587        C588   1.404       .  A
C587        H592   1.083       .  S
C588        C593   1.489       .  S
C588        C589   1.412       .  A
C589        C590   1.404       .  A
C589        N594   1.438       .  S
C590        H595   1.084       .  S
N591        H611   1.046       .  S
N591        H612   1.046       .  S
C593        C596   1.403       .  A
C593        C600   1.412       .  A
N594        H609   1.046       .  S
N594        H610   1.046       .  S
C596        C597   1.405       .  A
C596        H601   1.084       .  S
C597        C598   1.415   1_554  A
C597        N602   1.438       .  S
C598        C599   1.405       .  A
C599        C600   1.406   1_556  A
C599        H603   1.083       .  S
C600        N604   1.438       .  S
N602        H605   1.046       .  S
N602        H606   1.046   1_554  S
N604        H607   1.046   1_554  S
N604        H608   1.046       .  S
C613        C614   1.417       .  A
C613        C618   1.406       .  A
C614        C615   1.410       .  A
C614        N619   1.437       .  S
C615        C616   1.403       .  A
C615        H620   1.084       .  S
C616        C621   1.491       .  S
C616        C617   1.411       .  A
C617        C618   1.405       .  A
C617        N622   1.438       .  S
C618        H623   1.083       .  S
N619        H639   1.046       .  S
N619        H640   1.046       .  S
C621        C624   1.403       .  A
C621        C628   1.410       .  A
N622        H637   1.046       .  S
N622        H638   1.046       .  S
C624        C625   1.407       .  A
C624        H629   1.084       .  S
C625        C626   1.417       .  A
C625        N630   1.438       .  S
C626        C627   1.409       .  A
C627        C628   1.408       .  A
C627        H631   1.083       .  S
C628        N632   1.438       .  S
N630        H633   1.046       .  S
N630        H634   1.045       .  S
N632        H635   1.046       .  S
N632        H636   1.046       .  S
C641        C642   1.416       .  A
C641        C646   1.407       .  A
C642        C643   1.404       .  A
C642        N647   1.438       .  S
C643        C644   1.401       .  A
C643        H648   1.084       .  S
C644        C649   1.483       .  S
C644        C645   1.408       .  A
C645        C646   1.409       .  A
C645        N650   1.437       .  S
C646        H651   1.083       .  S
N647        H667   1.046       .  S
N647        H668   1.046       .  S
C649        C652   1.404       .  A
C649        C656   1.407       .  A
N650        H665   1.046       .  S
N650        H666   1.046       .  S
C652        C653   1.410       .  A
C652        H657   1.084       .  S
C653        C654   1.414       .  A
C653        N658   1.437       .  S
C654        C655   1.405       .  A
C655        C656   1.401       .  A
C655        H659   1.084       .  S
C656        N660   1.438       .  S
N658        H661   1.046       .  S
N658        H662   1.046       .  S
N660        H663   1.046       .  S
N660        H664   1.046       .  S
C669        C670   1.418       .  A
C669        C674   1.408       .  A
C670        C671   1.404       .  A
C670        N675   1.438       .  S
C671        C672   1.401       .  A
C671        H676   1.084       .  S
C672        C677   1.488       .  S
C672        C673   1.410       .  A
C673        C674   1.409       .  A
C673        N678   1.438       .  S
C674        H679   1.083       .  S
N675        H695   1.045       .  S
N675        H696   1.046       .  S
C677        C680   1.403       .  A
C677        C684   1.411       .  A
N678        H693   1.046       .  S
N678        H694   1.046       .  S
C680        C681   1.408       .  A
C680        H685   1.084       .  S
C681        C682   1.416       .  A
C681        N686   1.438       .  S
C682        C683   1.404       .  A
C683        C684   1.404       .  A
C683        H687   1.084       .  S
C684        N688   1.438       .  S
N686        H689   1.046       .  S
N686        H690   1.046       .  S
N688        H691   1.046       .  S
N688        H692   1.045       .  S
C697        C698   1.417       .  A
C697        C702   1.407       .  A
C698        C699   1.407       .  A
C698        N703   1.438       .  S
C699        C700   1.400       .  A
C699        H704   1.084       .  S
C700        C705   1.484       .  S
C700        C701   1.409       .  A
C701        C702   1.408       .  A
C701        N706   1.438       .  S
C702        H707   1.083       .  S
N703        H723   1.046       .  S
N703        H724   1.046       .  S
C705        C708   1.402       .  A
C705        C712   1.408       .  A
N706        H721   1.046       .  S
N706        H722   1.046       .  S
C708        C709   1.411       .  A
C708        H713   1.084       .  S
C709        C710   1.419       .  A
C709        N714   1.438       .  S
C710        C711   1.405       .  A
C711        C712   1.404       .  A
C711        H715   1.083       .  S
C712        N716   1.438       .  S
N714        H717   1.046       .  S
N714        H718   1.046       .  S
N716        H719   1.046       .  S
N716        H720   1.046       .  S
C725        C726   1.416       .  A
C725        C730   1.408       .  A
C726        C727   1.404       .  A
C726        N731   1.438       .  S
C727        C728   1.400       .  A
C727        H732   1.084       .  S
C728        C733   1.482   1_556  S
C728        C729   1.408       .  A
C729        C730   1.407       .  A
C729        N734   1.438       .  S
C730        H735   1.083       .  S
N731        H751   1.046       .  S
N731        H752   1.046       .  S
C733        C736   1.401       .  A
C733        C740   1.409       .  A
N734        H749   1.046       .  S
N734        H750   1.046   1_556  S
C736        C737   1.408       .  A
C736        H741   1.084       .  S
C737        C738   1.417       .  A
C737        N742   1.438       .  S
C738        C739   1.405       .  A
C739        C740   1.403       .  A
C739        H743   1.083       .  S
C740        N744   1.438   1_554  S
N742        H745   1.046       .  S
N742        H746   1.046       .  S
N744        H747   1.046       .  S
N744        H748   1.046       .  S
C753        C754   1.419       .  A
C753        C758   1.408       .  A
C754        C755   1.410       .  A
C754        N759   1.438       .  S
C755        C756   1.403       .  A
C755        H760   1.084       .  S
C756        C761   1.489       .  S
C756        C757   1.408       .  A
C757        C758   1.406       .  A
C757        N762   1.438       .  S
C758        H763   1.083       .  S
N759        H779   1.045       .  S
N759        H780   1.046       .  S
C761        C764   1.402       .  A
C761        C768   1.409       .  A
N762        H777   1.046       .  S
N762        H778   1.046       .  S
C764        C765   1.407       .  A
C764        H769   1.084       .  S
C765        C766   1.418       .  A
C765        N770   1.438       .  S
C766        C767   1.409       .  A
C767        C768   1.408       .  A
C767        H771   1.083       .  S
C768        N772   1.437       .  S
N770        H773   1.046       .  S
N770        H774   1.045       .  S
N772        H775   1.046       .  S
N772        H776   1.046       .  S
C781        C782   1.418       .  A
C781        C786   1.406       .  A
C782        C783   1.408       .  A
C782        N787   1.438       .  S
C783        C784   1.402       .  A
C783        H788   1.084       .  S
C784        C789   1.488       .  S
C784        C785   1.410       .  A
C785        C786   1.407       .  A
C785        N790   1.438       .  S
C786        H791   1.083       .  S
N787        H807   1.045       .  S
N787        H808   1.046       .  S
C789        C792   1.401       .  A
C789        C796   1.410       .  A
N790        H805   1.046       .  S
N790        H806   1.046       .  S
C792        C793   1.406       .  A
C792        H797   1.084       .  S
C793        C794   1.418       .  A
C793        N798   1.438       .  S
C794        C795   1.407       .  A
C795        C796   1.408       .  A
C795        H799   1.083       .  S
C796        N800   1.438       .  S
N798        H801   1.046       .  S
N798        H802   1.046       .  S
N800        H803   1.046       .  S
N800        H804   1.046       .  S
C809        C810   1.416       .  A
C809        C814   1.405       .  A
C810        C811   1.409       .  A
C810        N815   1.438       .  S
C811        C812   1.403       .  A
C811        H816   1.084       .  S
C812        C817   1.487       .  S
C812        C813   1.410       .  A
C813        C814   1.404       .  A
C813        N818   1.438       .  S
C814        H819   1.083       .  S
N815        H835   1.046       .  S
N815        H836   1.046       .  S
C817        C820   1.402       .  A
C817        C824   1.411       .  A
N818        H833   1.045       .  S
N818        H834   1.046       .  S
C820        C821   1.405       .  A
C820        H825   1.084       .  S
C821        C822   1.415       .  A
C821        N826   1.438       .  S
C822        C823   1.405       .  A
C823        C824   1.408       .  A
C823        H827   1.084       .  S
C824        N828   1.438       .  S
N826        H829   1.046       .  S
N826        H830   1.045       .  S
N828        H831   1.046       .  S
N828        H832   1.046       .  S
C837        C838   1.418       .  A
C837        C842   1.406       .  A
C838        C839   1.410   1_556  A
C838        N843   1.437   1_556  S
C839        C840   1.402   1_554  A
C839        H844   1.084       .  S
C840        C845   1.485       .  S
C840        C841   1.409       .  A
C841        C842   1.403       .  A
C841        N846   1.438       .  S
C842        H847   1.083       .  S
N843        H863   1.046   1_554  S
N843        H864   1.046       .  S
C845        C848   1.402       .  A
C845        C852   1.409   1_556  A
N846        H861   1.046       .  S
N846        H862   1.046       .  S
C848        C849   1.406       .  A
C848        H853   1.084       .  S
C849        C850   1.417   1_556  A
C849        N854   1.438       .  S
C850        C851   1.406       .  A
C851        C852   1.405       .  A
C851        H855   1.083       .  S
C852        N856   1.438       .  S
N854        H857   1.046       .  S
N854        H858   1.046       .  S
N856        H859   1.046       .  S
N856        H860   1.046       .  S
C865        C866   1.418       .  A
C865        C870   1.407       .  A
C866        C867   1.409       .  A
C866        N871   1.438       .  S
C867        C868   1.404       .  A
C867        H872   1.084       .  S
C868        C873   1.497       .  S
C868        C869   1.413       .  A
C869        C870   1.410       .  A
C869        N874   1.438       .  S
C870        H875   1.083       .  S
N871        H891   1.045       .  S
N871        H892   1.046       .  S
C873        C876   1.405       .  A
C873        C880   1.413       .  A
N874        H889   1.045       .  S
N874        H890   1.045       .  S
C876        C877   1.410       .  A
C876        H881   1.083       .  S
C877        C878   1.417       .  A
C877        N882   1.438       .  S
C878        C879   1.407       .  A
C879        C880   1.407       .  A
C879        H883   1.083       .  S
C880        N884   1.438       .  S
N882        H885   1.046       .  S
N882        H886   1.046       .  S
N884        H887   1.046       .  S
N884        H888   1.046       .  S
C893        C894   1.418       .  A
C893        C898   1.407       .  A
C894        C895   1.411       .  A
C894        N899   1.438       .  S
C895        C896   1.402       .  A
C895        H900   1.084       .  S
C896        C901   1.485       .  S
C896        C897   1.407       .  A
C897        C898   1.404       .  A
C897        N902   1.438       .  S
C898        H903   1.083       .  S
N899        H919   1.046       .  S
N899        H920   1.046       .  S
C901        C904   1.399       .  A
C901        C908   1.408       .  A
N902        H917   1.046       .  S
N902        H918   1.046       .  S
C904        C905   1.405       .  A
C904        H909   1.084       .  S
C905        C906   1.420       .  A
C905        N910   1.438       .  S
C906        C907   1.409       .  A
C907        C908   1.410       .  A
C907        H911   1.083       .  S
C908        N912   1.437       .  S
N910        H913   1.046       .  S
N910        H914   1.045       .  S
N912        H915   1.046       .  S
N912        H916   1.046       .  S
C921        C922   1.415       .  A
C921        C926   1.405       .  A
C922        C923   1.407       .  A
C922        N927   1.438       .  S
C923        C924   1.403       .  A
C923        H928   1.084       .  S
C924        C929   1.490       .  S
C924        C925   1.411       .  A
C925        C926   1.407       .  A
C925        N930   1.438       .  S
C926        H931   1.083       .  S
N927        H947   1.046       .  S
N927        H948   1.046       .  S
C929        C932   1.404       .  A
C929        C936   1.410       .  A
N930        H945   1.046       .  S
N930        H946   1.046       .  S
C932        C933   1.408       .  A
C932        H937   1.084       .  S
C933        C934   1.415       .  A
C933        N938   1.438       .  S
C934        C935   1.407       .  A
C935        C936   1.406       .  A
C935        H939   1.083       .  S
C936        N940   1.438       .  S
N938        H941   1.046       .  S
N938        H942   1.046       .  S
N940        H943   1.046       .  S
N940        H944   1.046       .  S
C949        C950   1.417       .  A
C949        C954   1.406       .  A
C950        C951   1.408       .  A
C950        N955   1.438       .  S
C951        C952   1.403       .  A
C951        H956   1.084       .  S
C952        C957   1.492       .  S
C952        C953   1.411       .  A
C953        C954   1.409       .  A
C953        N958   1.437       .  S
C954        H959   1.083       .  S
N955        H975   1.046       .  S
N955        H976   1.046       .  S
C957        C960   1.402       .  A
C957        C964   1.411       .  A
N958        H973   1.046       .  S
N958        H974   1.046       .  S
C960        C961   1.408       .  A
C960        H965   1.084       .  S
C961        C962   1.419       .  A
C961        N966   1.438       .  S
C962        C963   1.408       .  A
C963        C964   1.409       .  A
C963        H967   1.083       .  S
C964        N968   1.438       .  S
N966        H969   1.046       .  S
N966        H970   1.046       .  S
N968        H971   1.046       .  S
N968        H972   1.046       .  S
C977        C978   1.419       .  A
C977        C982   1.406       .  A
C978        C979   1.407       .  A
C978        N983   1.438       .  S
C979        C980   1.400       .  A
C979        H984   1.084       .  S
C980        C985   1.481       .  S
C980        C981   1.408       .  A
C981        C982   1.404       .  A
C981        N986   1.438       .  S
C982        H987   1.083       .  S
N983       H1003   1.046       .  S
N983       H1004   1.046       .  S
C985        C988   1.401       .  A
C985        C992   1.409       .  A
N986       H1001   1.046       .  S
N986       H1002   1.046       .  S
C988        C989   1.407       .  A
C988        H993   1.084       .  S
C989        C990   1.415       .  A
C989        N994   1.438       .  S
C990        C991   1.405       .  A
C991        C992   1.404       .  A
C991        H995   1.084       .  S
C992        N996   1.438       .  S
N994        H997   1.046       .  S
N994        H998   1.046       .  S
N996        H999   1.046       .  S
N996       H1000   1.046       .  S
C1005      C1006   1.419       .  A
C1005      C1010   1.408       .  A
C1006      C1007   1.406       .  A
C1006      N1011   1.438       .  S
C1007      C1008   1.400       .  A
C1007      H1012   1.084       .  S
C1008      C1013   1.484       .  S
C1008      C1009   1.408       .  A
C1009      C1010   1.408       .  A
C1009      N1014   1.438       .  S
C1010      H1015   1.083       .  S
N1011      H1031   1.045       .  S
N1011      H1032   1.046       .  S
C1013      C1016   1.401       .  A
C1013      C1020   1.409       .  A
N1014      H1029   1.046       .  S
N1014      H1030   1.046       .  S
C1016      C1017   1.407       .  A
C1016      H1021   1.084       .  S
C1017      C1018   1.418       .  A
C1017      N1022   1.438       .  S
C1018      C1019   1.406       .  A
C1019      C1020   1.405       .  A
C1019      H1023   1.083       .  S
C1020      N1024   1.438       .  S
N1022      H1025   1.046       .  S
N1022      H1026   1.046       .  S
N1024      H1027   1.046       .  S
N1024      H1028   1.046       .  S
C1033      C1034   1.416       .  A
C1033      C1038   1.405       .  A
C1034      C1035   1.407       .  A
C1034      N1039   1.438       .  S
C1035      C1036   1.401       .  A
C1035      H1040   1.084       .  S
C1036      C1041   1.483       .  S
C1036      C1037   1.409       .  A
C1037      C1038   1.406       .  A
C1037      N1042   1.438       .  S
C1038      H1043   1.084       .  S
N1039      H1059   1.046       .  S
N1039      H1060   1.046       .  S
C1041      C1044   1.400       .  A
C1041      C1048   1.409       .  A
N1042      H1057   1.046       .  S
N1042      H1058   1.046       .  S
C1044      C1045   1.407       .  A
C1044      H1049   1.084       .  S
C1045      C1046   1.419       .  A
C1045      N1050   1.438       .  S
C1046      C1047   1.408       .  A
C1047      C1048   1.405       .  A
C1047      H1051   1.083       .  S
C1048      N1052   1.438       .  S
N1050      H1053   1.046       .  S
N1050      H1054   1.046       .  S
N1052      H1055   1.046       .  S
N1052      H1056   1.046       .  S
C1061      C1062   1.412       .  A
C1061      C1066   1.404       .  A
C1062      C1063   1.408       .  A
C1062      N1067   1.437       .  S
C1063      C1064   1.405       .  A
C1063      H1068   1.083       .  S
C1064      C1069   1.485       .  S
C1064      C1065   1.409       .  A
C1065      C1066   1.400       .  A
C1065      N1070   1.438       .  S
C1066      H1071   1.084       .  S
N1067      H1087   1.046       .  S
N1067      H1088   1.046       .  S
C1069      C1072   1.403       .  A
C1069      C1076   1.410       .  A
N1070      H1085   1.046       .  S
N1070      H1086   1.046       .  S
C1072      C1073   1.403       .  A
C1072      H1077   1.084       .  S
C1073      C1074   1.415       .  A
C1073      N1078   1.439       .  S
C1074      C1075   1.405       .  A
C1075      C1076   1.406       .  A
C1075      H1079   1.083       .  S
C1076      N1080   1.437       .  S
N1078      H1081   1.046       .  S
N1078      H1082   1.046       .  S
N1080      H1083   1.046       .  S
N1080      H1084   1.046       .  S
C1089      C1090   1.415       .  A
C1089      C1094   1.407       .  A
C1090      C1091   1.410       .  A
C1090      N1095   1.437       .  S
C1091      C1092   1.402       .  A
C1091      H1096   1.084       .  S
C1092      C1097   1.481       .  S
C1092      C1093   1.407       .  A
C1093      C1094   1.405       .  A
C1093      N1098   1.438       .  S
C1094      H1099   1.084       .  S
N1095      H1115   1.046       .  S
N1095      H1116   1.046       .  S
C1097      C1100   1.403       .  A
C1097      C1104   1.407       .  A
N1098      H1113   1.045       .  S
N1098      H1114   1.045       .  S
C1100      C1101   1.410       .  A
C1100      H1105   1.084       .  S
C1101      C1102   1.415       .  A
C1101      N1106   1.437       .  S
C1102      C1103   1.406       .  A
C1103      C1104   1.403       .  A
C1103      H1107   1.084       .  S
C1104      N1108   1.438       .  S
N1106      H1109   1.046       .  S
N1106      H1110   1.046   1_554  S
N1108      H1111   1.046       .  S
N1108      H1112   1.045       .  S
C1117      C1118   1.415       .  A
C1117      C1122   1.406   1_554  A
C1118      C1119   1.409       .  A
C1118      N1123   1.438       .  S
C1119      C1120   1.403       .  A
C1119      H1124   1.084       .  S
C1120      C1125   1.483       .  S
C1120      C1121   1.408   1_554  A
C1121      C1122   1.403       .  A
C1121      N1126   1.438       .  S
C1122      H1127   1.084       .  S
N1123      H1143   1.046       .  S
N1123      H1144   1.046       .  S
C1125      C1128   1.403   1_554  A
C1125      C1132   1.408       .  A
N1126      H1141   1.046       .  S
N1126      H1142   1.046       .  S
C1128      C1129   1.408       .  A
C1128      H1133   1.084       .  S
C1129      C1130   1.413       .  A
C1129      N1134   1.437       .  S
C1130      C1131   1.405   1_556  A
C1131      C1132   1.404       .  A
C1131      H1135   1.084       .  S
C1132      N1136   1.438       .  S
N1134      H1137   1.046       .  S
N1134      H1138   1.046       .  S
N1136      H1139   1.046       .  S
N1136      H1140   1.046       .  S
C1145      C1146   1.419       .  A
C1145      C1150   1.409       .  A
C1146      C1147   1.408       .  A
C1146      N1151   1.438       .  S
C1147      C1148   1.401       .  A
C1147      H1152   1.084       .  S
C1148      C1153   1.487       .  S
C1148      C1149   1.408       .  A
C1149      C1150   1.408       .  A
C1149      N1154   1.437       .  S
C1150      H1155   1.083       .  S
N1151      H1171   1.046       .  S
N1151      H1172   1.046       .  S
C1153      C1156   1.403       .  A
C1153      C1160   1.410       .  A
N1154      H1169   1.046       .  S
N1154      H1170   1.046       .  S
C1156      C1157   1.408       .  A
C1156      H1161   1.084       .  S
C1157      C1158   1.413       .  A
C1157      N1162   1.438       .  S
C1158      C1159   1.405       .  A
C1159      C1160   1.407       .  A
C1159      H1163   1.084       .  S
C1160      N1164   1.437       .  S
N1162      H1165   1.046       .  S
N1162      H1166   1.046       .  S
N1164      H1167   1.046       .  S
N1164      H1168   1.045       .  S
C1173      C1174   1.418       .  A
C1173      C1178   1.407       .  A
C1174      C1175   1.406       .  A
C1174      N1179   1.438       .  S
C1175      C1176   1.403       .  A
C1175      H1180   1.084       .  S
C1176      C1181   1.490       .  S
C1176      C1177   1.410       .  A
C1177      C1178   1.408       .  A
C1177      N1182   1.438       .  S
C1178      H1183   1.083       .  S
N1179      H1199   1.046       .  S
N1179      H1200   1.046       .  S
C1181      C1184   1.404       .  A
C1181      C1188   1.410       .  A
N1182      H1197   1.046       .  S
N1182      H1198   1.046       .  S
C1184      C1185   1.409       .  A
C1184      H1189   1.084       .  S
C1185      C1186   1.418       .  A
C1185      N1190   1.438       .  S
C1186      C1187   1.406       .  A
C1187      C1188   1.405       .  A
C1187      H1191   1.083       .  S
C1188      N1192   1.438       .  S
N1190      H1193   1.046       .  S
N1190      H1194   1.046       .  S
N1192      H1195   1.046       .  S
N1192      H1196   1.045       .  S
C1201      C1202   1.414       .  A
C1201      C1206   1.406       .  A
C1202      C1203   1.408       .  A
C1202      N1207   1.437       .  S
C1203      C1204   1.402       .  A
C1203      H1208   1.084       .  S
C1204      C1209   1.479       .  S
C1204      C1205   1.408       .  A
C1205      C1206   1.404       .  A
C1205      N1210   1.439       .  S
C1206      H1211   1.084       .  S
N1207      H1227   1.046       .  S
N1207      H1228   1.046       .  S
C1209      C1212   1.403       .  A
C1209      C1216   1.409       .  A
N1210      H1225   1.046       .  S
N1210      H1226   1.044       .  S
C1212      C1213   1.408       .  A
C1212      H1217   1.084       .  S
C1213      C1214   1.411       .  A
C1213      N1218   1.437       .  S
C1214      C1215   1.405       .  A
C1215      C1216   1.404       .  A
C1215      H1219   1.084       .  S
C1216      N1220   1.439       .  S
N1218      H1221   1.046       .  S
N1218      H1222   1.046       .  S
N1220      H1223   1.046       .  S
N1220      H1224   1.044       .  S
C1229      C1230   1.419       .  A
C1229      C1234   1.408       .  A
C1230      C1231   1.411       .  A
C1230      N1235   1.438       .  S
C1231      C1232   1.402       .  A
C1231      H1236   1.084       .  S
C1232      C1237   1.486       .  S
C1232      C1233   1.407       .  A
C1233      C1234   1.405       .  A
C1233      N1238   1.438       .  S
C1234      H1239   1.083       .  S
N1235      H1255   1.046       .  S
N1235      H1256   1.046       .  S
C1237      C1240   1.403       .  A
C1237      C1244   1.409       .  A
N1238      H1253   1.045       .  S
N1238      H1254   1.046       .  S
C1240      C1241   1.409       .  A
C1240      H1245   1.084       .  S
C1241      C1242   1.415       .  A
C1241      N1246   1.438       .  S
C1242      C1243   1.406       .  A
C1243      C1244   1.407       .  A
C1243      H1247   1.084       .  S
C1244      N1248   1.438       .  S
N1246      H1249   1.046       .  S
N1246      H1250   1.046       .  S
N1248      H1251   1.046       .  S
N1248      H1252   1.046       .  S
C1257      C1258   1.415       .  A
C1257      C1262   1.405       .  A
C1258      C1259   1.407       .  A
C1258      N1263   1.438       .  S
C1259      C1260   1.403       .  A
C1259      H1264   1.084       .  S
C1260      C1265   1.489       .  S
C1260      C1261   1.411       .  A
C1261      C1262   1.406       .  A
C1261      N1266   1.438       .  S
C1262      H1267   1.083       .  S
N1263      H1283   1.046       .  S
N1263      H1284   1.046       .  S
C1265      C1268   1.404       .  A
C1265      C1272   1.410       .  A
N1266      H1281   1.046       .  S
N1266      H1282   1.046       .  S
C1268      C1269   1.408       .  A
C1268      H1273   1.084       .  S
C1269      C1270   1.416       .  A
C1269      N1274   1.438       .  S
C1270      C1271   1.406       .  A
C1271      C1272   1.407       .  A
C1271      H1275   1.083       .  S
C1272      N1276   1.438       .  S
N1274      H1277   1.046       .  S
N1274      H1278   1.046       .  S
N1276      H1279   1.045       .  S
N1276      H1280   1.046       .  S
C1285      C1286   1.417       .  A
C1285      C1290   1.406       .  A
C1286      C1287   1.407       .  A
C1286      N1291   1.438       .  S
C1287      C1288   1.401       .  A
C1287      H1292   1.084       .  S
C1288      C1293   1.486       .  S
C1288      C1289   1.410       .  A
C1289      C1290   1.410       .  A
C1289      N1294   1.437       .  S
C1290      H1295   1.083       .  S
N1291      H1311   1.046       .  S
N1291      H1312   1.046       .  S
C1293      C1296   1.402       .  A
C1293      C1300   1.408       .  A
N1294      H1309   1.046       .  S
N1294      H1310   1.046       .  S
C1296      C1297   1.411       .  A
C1296      H1301   1.084       .  S
C1297      C1298   1.417       .  A
C1297      N1302   1.437       .  S
C1298      C1299   1.407       .  A
C1299      C1300   1.406       .  A
C1299      H1303   1.083       .  S
C1300      N1304   1.438       .  S
N1302      H1305   1.046       .  S
N1302      H1306   1.046       .  S
N1304      H1307   1.046       .  S
N1304      H1308   1.046       .  S
C1313      C1314   1.419       .  A
C1313      C1318   1.408       .  A
C1314      C1315   1.412   1_556  A
C1314      N1319   1.437   1_556  S
C1315      C1316   1.401   1_554  A
C1315      H1320   1.084       .  S
C1316      C1321   1.483   1_556  S
C1316      C1317   1.406       .  A
C1317      C1318   1.404       .  A
C1317      N1322   1.438       .  S
C1318      H1323   1.083       .  S
N1319      H1339   1.045       .  S
N1319      H1340   1.046       .  S
C1321      C1324   1.402       .  A
C1321      C1328   1.407   1_554  A
N1322      H1337   1.046       .  S
N1322      H1338   1.046       .  S
C1324      C1325   1.407       .  A
C1324      H1329   1.084       .  S
C1325      C1326   1.415       .  A
C1325      N1330   1.438       .  S
C1326      C1327   1.406       .  A
C1327      C1328   1.407   1_554  A
C1327      H1331   1.083   1_554  S
C1328      N1332   1.437       .  S
N1330      H1333   1.046       .  S
N1330      H1334   1.046       .  S
N1332      H1335   1.046       .  S
N1332      H1336   1.046       .  S
C1341      C1342   1.413       .  A
C1341      C1346   1.405       .  A
C1342      C1343   1.407       .  A
C1342      N1347   1.438       .  S
C1343      C1344   1.402       .  A
C1343      H1348   1.084       .  S
C1344      C1349   1.482       .  S
C1344      C1345   1.408       .  A
C1345      C1346   1.406       .  A
C1345      N1350   1.437       .  S
C1346      H1351   1.084       .  S
N1347      H1367   1.046       .  S
N1347      H1368   1.046       .  S
C1349      C1352   1.401       .  A
C1349      C1356   1.408       .  A
N1350      H1365   1.046       .  S
N1350      H1366   1.046       .  S
C1352      C1353   1.405       .  A
C1352      H1357   1.084       .  S
C1353      C1354   1.415       .  A
C1353      N1358   1.438       .  S
C1354      C1355   1.407       .  A
C1355      C1356   1.408       .  A
C1355      H1359   1.083       .  S
C1356      N1360   1.437       .  S
N1358      H1361   1.046       .  S
N1358      H1362   1.046       .  S
N1360      H1363   1.046       .  S
N1360      H1364   1.046       .  S
C1369      C1370   1.416       .  A
C1369      C1374   1.406       .  A
C1370      C1371   1.408       .  A
C1370      N1375   1.437       .  S
C1371      C1372   1.403       .  A
C1371      H1376   1.084       .  S
C1372      C1377   1.488       .  S
C1372      C1373   1.410       .  A
C1373      C1374   1.405       .  A
C1373      N1378   1.438       .  S
C1374      H1379   1.083       .  S
N1375      H1395   1.046       .  S
N1375      H1396   1.046       .  S
C1377      C1380   1.403       .  A
C1377      C1384   1.410       .  A
N1378      H1393   1.046       .  S
N1378      H1394   1.046       .  S
C1380      C1381   1.407       .  A
C1380      H1385   1.084       .  S
C1381      C1382   1.416       .  A
C1381      N1386   1.438       .  S
C1382      C1383   1.408       .  A
C1383      C1384   1.406       .  A
C1383      H1387   1.083       .  S
C1384      N1388   1.438       .  S
N1386      H1389   1.046       .  S
N1386      H1390   1.046       .  S
N1388      H1391   1.046       .  S
N1388      H1392   1.046       .  S
C1397      C1398   1.413       .  A
C1397      C1402   1.403       .  A
C1398      C1399   1.405       .  A
C1398      N1403   1.438       .  S
C1399      C1400   1.403       .  A
C1399      H1404   1.084       .  S
C1400      C1405   1.488       .  S
C1400      C1401   1.413       .  A
C1401      C1402   1.406       .  A
C1401      N1406   1.438       .  S
C1402      H1407   1.084       .  S
N1403      H1423   1.044       .  S
N1403      H1424   1.047       .  S
C1405      C1408   1.403       .  A
C1405      C1412   1.410       .  A
N1406      H1421   1.046       .  S
N1406      H1422   1.046       .  S
C1408      C1409   1.407       .  A
C1408      H1413   1.084       .  S
C1409      C1410   1.417       .  A
C1409      N1414   1.438       .  S
C1410      C1411   1.406       .  A
C1411      C1412   1.404       .  A
C1411      H1415   1.083       .  S
C1412      N1416   1.438       .  S
N1414      H1417   1.046       .  S
N1414      H1418   1.045       .  S
N1416      H1419   1.046       .  S
N1416      H1420   1.046       .  S
C1425      C1426   1.416       .  A
C1425      C1430   1.406       .  A
C1426      C1427   1.407       .  A
C1426      N1431   1.438       .  S
C1427      C1428   1.400       .  A
C1427      H1432   1.084       .  S
C1428      C1433   1.483       .  S
C1428      C1429   1.409       .  A
C1429      C1430   1.408       .  A
C1429      N1434   1.438       .  S
C1430      H1435   1.084       .  S
N1431      H1451   1.046       .  S
N1431      H1452   1.046       .  S
C1433      C1436   1.401       .  A
C1433      C1440   1.408       .  A
N1434      H1449   1.046       .  S
N1434      H1450   1.046       .  S
C1436      C1437   1.408       .  A
C1436      H1441   1.084       .  S
C1437      C1438   1.417       .  A
C1437      N1442   1.438       .  S
C1438      C1439   1.406       .  A
C1439      C1440   1.405       .  A
C1439      H1443   1.083       .  S
C1440      N1444   1.438       .  S
N1442      H1445   1.046       .  S
N1442      H1446   1.046       .  S
N1444      H1447   1.046       .  S
N1444      H1448   1.046       .  S
C1453      C1454   1.418       .  A
C1453      C1458   1.407       .  A
C1454      C1455   1.406       .  A
C1454      N1459   1.438       .  S
C1455      C1456   1.401       .  A
C1455      H1460   1.084       .  S
C1456      C1461   1.486       .  S
C1456      C1457   1.410       .  A
C1457      C1458   1.405       .  A
C1457      N1462   1.438       .  S
C1458      H1463   1.083       .  S
N1459      H1479   1.046       .  S
N1459      H1480   1.046       .  S
C1461      C1464   1.401       .  A
C1461      C1468   1.410       .  A
N1462      H1477   1.046       .  S
N1462      H1478   1.045       .  S
C1464      C1465   1.404       .  A
C1464      H1469   1.084       .  S
C1465      C1466   1.416       .  A
C1465      N1470   1.438       .  S
C1466      C1467   1.407       .  A
C1467      C1468   1.408       .  A
C1467      H1471   1.083       .  S
C1468      N1472   1.438       .  S
N1470      H1473   1.046       .  S
N1470      H1474   1.046       .  S
N1472      H1475   1.046       .  S
N1472      H1476   1.046       .  S
C1481      C1482   1.417   1_556  A
C1481      C1486   1.408       .  A
C1482      C1483   1.406       .  A
C1482      N1487   1.438   1_554  S
C1483      C1484   1.401       .  A
C1483      H1488   1.084       .  S
C1484      C1489   1.487       .  S
C1484      C1485   1.409       .  A
C1485      C1486   1.409   1_554  A
C1485      N1490   1.437   1_655  S
C1486      H1491   1.083       .  S
N1487      H1507   1.046       .  S
N1487      H1508   1.046   1_556  S
C1489      C1492   1.401   1_655  A
C1489      C1496   1.410       .  A
N1490      H1505   1.046   1_554  S
N1490      H1506   1.046   1_455  S
C1492      C1493   1.406       .  A
C1492      H1497   1.084       .  S
C1493      C1494   1.417       .  A
C1493      N1498   1.438       .  S
C1494      C1495   1.407   1_455  A
C1495      C1496   1.408       .  A
C1495      H1499   1.083       .  S
C1496      N1500   1.437       .  S
N1498      H1501   1.046       .  S
N1498      H1502   1.046       .  S
N1500      H1503   1.046       .  S
N1500      H1504   1.046       .  S
C1509      C1510   1.414   1_455  A
C1509      C1514   1.405       .  A
C1510      C1511   1.408       .  A
C1510      N1515   1.438       .  S
C1511      C1512   1.404       .  A
C1511      H1516   1.083       .  S
C1512      C1517   1.491       .  S
C1512      C1513   1.412   1_655  A
C1513      C1514   1.406       .  A
C1513      N1518   1.438       .  S
C1514      H1519   1.084       .  S
N1515      H1535   1.046       .  S
N1515      H1536   1.046       .  S
C1517      C1520   1.403       .  A
C1517      C1524   1.411       .  A
N1518      H1533   1.046       .  S
N1518      H1534   1.046       .  S
C1520      C1521   1.406       .  A
C1520      H1525   1.084   1_655  S
C1521      C1522   1.417       .  A
C1521      N1526   1.438   1_655  S
C1522      C1523   1.408       .  A
C1523      C1524   1.408       .  A
C1523      H1527   1.083       .  S
C1524      N1528   1.438       .  S
N1526      H1529   1.046       .  S
N1526      H1530   1.046   1_455  S
N1528      H1531   1.046       .  S
N1528      H1532   1.045       .  S
C1537      C1538   1.417       .  A
C1537      C1542   1.408       .  A
C1538      C1539   1.405       .  A
C1538      N1543   1.438       .  S
C1539      C1540   1.399       .  A
C1539      H1544   1.084       .  S
C1540      C1545   1.477       .  S
C1540      C1541   1.406       .  A
C1541      C1542   1.407       .  A
C1541      N1546   1.438       .  S
C1542      H1547   1.083       .  S
N1543      H1563   1.046       .  S
N1543      H1564   1.046       .  S
C1545      C1548   1.400       .  A
C1545      C1552   1.407       .  A
N1546      H1561   1.046       .  S
N1546      H1562   1.046       .  S
C1548      C1549   1.405       .  A
C1548      H1553   1.084       .  S
C1549      C1550   1.414       .  A
C1549      N1554   1.438       .  S
C1550      C1551   1.406       .  A
C1551      C1552   1.407       .  A
C1551      H1555   1.084       .  S
C1552      N1556   1.437       .  S
N1554      H1557   1.046   1_554  S
N1554      H1558   1.046   1_554  S
N1556      H1559   1.046       .  S
N1556      H1560   1.045       .  S
C1565      C1566   1.414       .  A
C1565      C1570   1.407       .  A
C1566      C1567   1.405       .  A
C1566      N1571   1.437       .  S
C1567      C1568   1.401       .  A
C1567      H1572   1.084       .  S
C1568      C1573   1.477       .  S
C1568      C1569   1.407       .  A
C1569      C1570   1.405       .  A
C1569      N1574   1.437       .  S
C1570      H1575   1.084       .  S
N1571      H1591   1.046       .  S
N1571      H1592   1.046       .  S
C1573      C1576   1.399       .  A
C1573      C1580   1.408       .  A
N1574      H1589   1.046       .  S
N1574      H1590   1.046       .  S
C1576      C1577   1.403       .  A
C1576      H1581   1.084       .  S
C1577      C1578   1.414       .  A
C1577      N1582   1.438       .  S
C1578      C1579   1.406       .  A
C1579      C1580   1.407       .  A
C1579      H1583   1.084       .  S
C1580      N1584   1.437       .  S
N1582      H1585   1.046       .  S
N1582      H1586   1.046       .  S
N1584      H1587   1.046       .  S
N1584      H1588   1.046       .  S
C1593      C1594   1.413       .  A
C1593      C1598   1.406       .  A
C1594      C1595   1.404       .  A
C1594      N1599   1.438       .  S
C1595      C1596   1.402       .  A
C1595      H1600   1.084       .  S
C1596      C1601   1.482       .  S
C1596      C1597   1.408       .  A
C1597      C1598   1.407       .  A
C1597      N1602   1.437       .  S
C1598      H1603   1.083       .  S
N1599      H1619   1.046       .  S
N1599      H1620   1.046       .  S
C1601      C1604   1.402       .  A
C1601      C1608   1.408       .  A
N1602      H1617   1.046       .  S
N1602      H1618   1.046       .  S
C1604      C1605   1.409       .  A
C1604      H1609   1.084       .  S
C1605      C1606   1.418       .  A
C1605      N1610   1.438       .  S
C1606      C1607   1.406       .  A
C1607      C1608   1.402       .  A
C1607      H1611   1.083       .  S
C1608      N1612   1.438       .  S
N1610      H1613   1.046       .  S
N1610      H1614   1.045       .  S
N1612      H1615   1.046       .  S
N1612      H1616   1.046       .  S
C1621      C1622   1.418       .  A
C1621      C1626   1.407       .  A
C1622      C1623   1.407       .  A
C1622      N1627   1.438       .  S
C1623      C1624   1.401       .  A
C1623      H1628   1.084   1_655  S
C1624      C1629   1.483       .  S
C1624      C1625   1.408       .  A
C1625      C1626   1.405       .  A
C1625      N1630   1.438       .  S
C1626      H1631   1.083       .  S
N1627      H1647   1.046       .  S
N1627      H1648   1.046   1_655  S
C1629      C1632   1.402       .  A
C1629      C1636   1.408   1_655  A
N1630      H1645   1.046       .  S
N1630      H1646   1.046       .  S
C1632      C1633   1.407       .  A
C1632      H1637   1.084       .  S
C1633      C1634   1.417   1_655  A
C1633      N1638   1.437       .  S
C1634      C1635   1.408       .  A
C1635      C1636   1.406       .  A
C1635      H1639   1.083       .  S
C1636      N1640   1.438       .  S
N1638      H1641   1.046       .  S
N1638      H1642   1.046       .  S
N1640      H1643   1.046       .  S
N1640      H1644   1.046       .  S
C1649      C1650   1.415       .  A
C1649      C1654   1.406       .  A
C1650      C1651   1.408       .  A
C1650      N1655   1.438       .  S
C1651      C1652   1.403       .  A
C1651      H1656   1.084   1_655  S
C1652      C1657   1.488       .  S
C1652      C1653   1.410       .  A
C1653      C1654   1.406       .  A
C1653      N1658   1.438       .  S
C1654      H1659   1.083       .  S
N1655      H1675   1.046       .  S
N1655      H1676   1.046   1_655  S
C1657      C1660   1.403       .  A
C1657      C1664   1.410       .  A
N1658      H1673   1.046       .  S
N1658      H1674   1.046       .  S
C1660      C1661   1.407   1_656  A
C1660      H1665   1.084       .  S
C1661      C1662   1.416       .  A
C1661      N1666   1.438       .  S
C1662      C1663   1.406       .  A
C1663      C1664   1.408   1_454  A
C1663      H1667   1.084       .  S
C1664      N1668   1.437       .  S
N1666      H1669   1.046   1_455  S
N1666      H1670   1.045       .  S
N1668      H1671   1.046       .  S
N1668      H1672   1.046       .  S
C1677      C1678   1.417       .  A
C1677      C1682   1.407       .  A
C1678      C1679   1.407       .  A
C1678      N1683   1.438       .  S
C1679      C1680   1.403       .  A
C1679      H1684   1.084       .  S
C1680      C1685   1.490       .  S
C1680      C1681   1.410       .  A
C1681      C1682   1.405       .  A
C1681      N1686   1.438       .  S
C1682      H1687   1.083       .  S
N1683      H1703   1.045       .  S
N1683      H1704   1.046       .  S
C1685      C1688   1.403       .  A
C1685      C1692   1.410       .  A
N1686      H1701   1.046       .  S
N1686      H1702   1.046       .  S
C1688      C1689   1.408       .  A
C1688      H1693   1.084       .  S
C1689      C1690   1.417       .  A
C1689      N1694   1.438       .  S
C1690      C1691   1.407       .  A
C1691      C1692   1.407       .  A
C1691      H1695   1.083       .  S
C1692      N1696   1.438       .  S
N1694      H1697   1.046       .  S
N1694      H1698   1.046       .  S
N1696      H1699   1.045       .  S
N1696      H1700   1.046       .  S
C1705      C1706   1.413       .  A
C1705      C1710   1.404       .  A
C1706      C1707   1.406   1_554  A
C1706      N1711   1.438       .  S
C1707      C1708   1.404       .  A
C1707      H1712   1.084   1_655  S
C1708      C1713   1.480       .  S
C1708      C1709   1.408       .  A
C1709      C1710   1.401   1_556  A
C1709      N1714   1.438       .  S
C1710      H1715   1.084       .  S
N1711      H1731   1.046       .  S
N1711      H1732   1.046   1_655  S
C1713      C1716   1.401       .  A
C1713      C1720   1.409   1_655  A
N1714      H1729   1.046       .  S
N1714      H1730   1.045       .  S
C1716      C1717   1.402       .  A
C1716      H1721   1.084       .  S
C1717      C1718   1.414   1_655  A
C1717      N1722   1.438       .  S
C1718      C1719   1.405       .  A
C1719      C1720   1.405       .  A
C1719      H1723   1.084       .  S
C1720      N1724   1.438       .  S
N1722      H1725   1.046       .  S
N1722      H1726   1.046   1_655  S
N1724      H1727   1.046       .  S
N1724      H1728   1.046   1_455  S
C1733      C1734   1.416       .  A
C1733      C1738   1.405       .  A
C1734      C1735   1.402       .  A
C1734      N1739   1.439       .  S
C1735      C1736   1.400       .  A
C1735      H1740   1.084       .  S
C1736      C1741   1.480       .  S
C1736      C1737   1.409       .  A
C1737      C1738   1.406       .  A
C1737      N1742   1.437   1_655  S
C1738      H1743   1.084       .  S
N1739      H1759   1.045       .  S
N1739      H1760   1.046       .  S
C1741      C1744   1.400   1_655  A
C1741      C1748   1.407       .  A
N1742      H1757   1.046       .  S
N1742      H1758   1.046       .  S
C1744      C1745   1.405       .  A
C1744      H1749   1.084       .  S
C1745      C1746   1.419       .  A
C1745      N1750   1.438       .  S
C1746      C1747   1.407   1_455  A
C1747      C1748   1.405       .  A
C1747      H1751   1.083       .  S
C1748      N1752   1.438       .  S
N1750      H1753   1.046       .  S
N1750      H1754   1.045       .  S
N1752      H1755   1.046       .  S
N1752      H1756   1.046       .  S
C1761      C1762   1.415       .  A
C1761      C1766   1.403       .  A
C1762      C1763   1.406       .  A
C1762      N1767   1.438       .  S
C1763      C1764   1.402       .  A
C1763      H1768   1.084       .  S
C1764      C1769   1.482       .  S
C1764      C1765   1.410       .  A
C1765      C1766   1.403       .  A
C1765      N1770   1.438       .  S
C1766      H1771   1.084       .  S
N1767      H1787   1.046       .  S
N1767      H1788   1.046       .  S
C1769      C1772   1.401       .  A
C1769      C1776   1.408       .  A
N1770      H1785   1.046       .  S
N1770      H1786   1.046       .  S
C1772      C1773   1.404       .  A
C1772      H1777   1.084       .  S
C1773      C1774   1.417       .  A
C1773      N1778   1.438       .  S
C1774      C1775   1.406       .  A
C1775      C1776   1.406       .  A
C1775      H1779   1.083       .  S
C1776      N1780   1.438       .  S
N1778      H1781   1.046       .  S
N1778      H1782   1.046       .  S
N1780      H1783   1.046       .  S
N1780      H1784   1.046       .  S
C1789      C1790   1.416       .  A
C1789      C1794   1.408       .  A
C1790      C1791   1.402       .  A
C1790      N1795   1.438       .  S
C1791      C1792   1.400   1_545  A
C1791      H1796   1.084   1_545  S
C1792      C1797   1.478       .  S
C1792      C1793   1.407   1_565  A
C1793      C1794   1.406       .  A
C1793      N1798   1.438       .  S
C1794      H1799   1.083       .  S
N1795      H1815   1.046       .  S
N1795      H1816   1.046       .  S
C1797      C1800   1.400       .  A
C1797      C1804   1.407       .  A
N1798      H1813   1.046       .  S
N1798      H1814   1.046       .  S
C1800      C1801   1.407       .  A
C1800      H1805   1.084       .  S
C1801      C1802   1.418       .  A
C1801      N1806   1.438       .  S
C1802      C1803   1.406       .  A
C1803      C1804   1.401       .  A
C1803      H1807   1.083       .  S
C1804      N1808   1.438       .  S
N1806      H1809   1.046       .  S
N1806      H1810   1.046       .  S
N1808      H1811   1.046       .  S
N1808      H1812   1.046       .  S
C1817      C1818   1.413       .  A
C1817      C1822   1.405       .  A
C1818      C1819   1.408       .  A
C1818      N1823   1.437       .  S
C1819      C1820   1.405       .  A
C1819      H1824   1.084       .  S
C1820      C1825   1.488       .  S
C1820      C1821   1.410       .  A
C1821      C1822   1.404       .  A
C1821      N1826   1.438       .  S
C1822      H1827   1.084       .  S
N1823      H1843   1.045       .  S
N1823      H1844   1.046       .  S
C1825      C1828   1.404       .  A
C1825      C1832   1.410       .  A
N1826      H1841   1.046       .  S
N1826      H1842   1.046       .  S
C1828      C1829   1.407       .  A
C1828      H1833   1.084       .  S
C1829      C1830   1.415       .  A
C1829      N1834   1.438       .  S
C1830      C1831   1.404       .  A
C1831      C1832   1.405       .  A
C1831      H1835   1.083       .  S
C1832      N1836   1.438       .  S
N1834      H1837   1.047       .  S
N1834      H1838   1.044       .  S
N1836      H1839   1.046       .  S
N1836      H1840   1.046       .  S
C1845      C1846   1.415       .  A
C1845      C1850   1.406       .  A
C1846      C1847   1.409       .  A
C1846      N1851   1.437       .  S
C1847      C1848   1.404       .  A
C1847      H1852   1.083       .  S
C1848      C1853   1.490       .  S
C1848      C1849   1.411       .  A
C1849      C1850   1.405       .  A
C1849      N1854   1.438       .  S
C1850      H1855   1.083       .  S
N1851      H1871   1.046       .  S
N1851      H1872   1.046       .  S
C1853      C1856   1.401   1_565  A
C1853      C1860   1.413   1_565  A
N1854      H1869   1.046       .  S
N1854      H1870   1.046       .  S
C1856      C1857   1.403       .  A
C1856      H1861   1.084       .  S
C1857      C1858   1.416       .  A
C1857      N1862   1.438       .  S
C1858      C1859   1.405       .  A
C1859      C1860   1.410       .  A
C1859      H1863   1.083       .  S
C1860      N1864   1.437   1_545  S
N1862      H1865   1.048       .  S
N1862      H1866   1.044       .  S
N1864      H1867   1.046       .  S
N1864      H1868   1.046       .  S
C1873      C1874   1.419       .  A
C1873      C1878   1.408       .  A
C1874      C1875   1.406       .  A
C1874      N1879   1.438       .  S
C1875      C1876   1.399       .  A
C1875      H1880   1.084       .  S
C1876      C1881   1.480   1_455  S
C1876      C1877   1.407   1_455  A
C1877      C1878   1.407   1_655  A
C1877      N1882   1.438       .  S
C1878      H1883   1.083   1_455  S
N1879      H1899   1.045       .  S
N1879      H1900   1.046       .  S
C1881      C1884   1.401       .  A
C1881      C1888   1.408       .  A
N1882      H1897   1.046       .  S
N1882      H1898   1.046       .  S
C1884      C1885   1.408       .  A
C1884      H1889   1.084       .  S
C1885      C1886   1.415       .  A
C1885      N1890   1.438       .  S
C1886      C1887   1.405       .  A
C1887      C1888   1.404       .  A
C1887      H1891   1.084       .  S
C1888      N1892   1.438       .  S
N1890      H1893   1.046       .  S
N1890      H1894   1.046       .  S
N1892      H1895   1.046       .  S
N1892      H1896   1.045       .  S
C1901      C1902   1.414       .  A
C1901      C1906   1.404       .  A
C1902      C1903   1.406   1_655  A
C1902      N1907   1.438   1_655  S
C1903      C1904   1.403   1_455  A
C1903      H1908   1.084       .  S
C1904      C1909   1.484   1_655  S
C1904      C1905   1.411       .  A
C1905      C1906   1.403       .  A
C1905      N1910   1.439       .  S
C1906      H1911   1.084       .  S
N1907      H1927   1.046   1_455  S
N1907      H1928   1.046       .  S
C1909      C1912   1.403   1_455  A
C1909      C1916   1.410       .  A
N1910      H1925   1.046       .  S
N1910      H1926   1.046       .  S
C1912      C1913   1.405   1_654  A
C1912      H1917   1.084       .  S
C1913      C1914   1.414       .  A
C1913      N1918   1.438   1_455  S
C1914      C1915   1.406       .  A
C1915      C1916   1.403   1_556  A
C1915      H1919   1.084       .  S
C1916      N1920   1.438       .  S
N1918      H1921   1.046       .  S
N1918      H1922   1.046       .  S
N1920      H1923   1.046       .  S
N1920      H1924   1.046       .  S
C1929      C1930   1.413       .  A
C1929      C1934   1.405       .  A
C1930      C1931   1.409       .  A
C1930      N1935   1.437       .  S
C1931      C1932   1.402       .  A
C1931      H1936   1.084       .  S
C1932      C1937   1.481       .  S
C1932      C1933   1.409       .  A
C1933      C1934   1.405       .  A
C1933      N1938   1.439       .  S
C1934      H1939   1.084       .  S
N1935      H1955   1.046       .  S
N1935      H1956   1.046       .  S
C1937      C1940   1.402       .  A
C1937      C1944   1.409       .  A
N1938      H1953   1.046       .  S
N1938      H1954   1.043       .  S
C1940      C1941   1.408       .  A
C1940      H1945   1.084       .  S
C1941      C1942   1.413       .  A
C1941      N1946   1.437       .  S
C1942      C1943   1.406       .  A
C1943      C1944   1.405       .  A
C1943      H1947   1.084       .  S
C1944      N1948   1.439       .  S
N1946      H1949   1.046       .  S
N1946      H1950   1.046       .  S
N1948      H1951   1.046       .  S
N1948      H1952   1.043       .  S
C1957      C1958   1.413       .  A
C1957      C1962   1.403       .  A
C1958      C1959   1.405       .  A
C1958      N1963   1.438       .  S
C1959      C1960   1.403       .  A
C1959      H1964   1.084       .  S
C1960      C1965   1.488       .  S
C1960      C1961   1.413       .  A
C1961      C1962   1.407       .  A
C1961      N1966   1.438       .  S
C1962      H1967   1.084       .  S
N1963      H1983   1.046       .  S
N1963      H1984   1.046       .  S
C1965      C1968   1.404       .  A
C1965      C1972   1.412       .  A
N1966      H1981   1.046       .  S
N1966      H1982   1.046       .  S
C1968      C1969   1.407       .  A
C1968      H1973   1.084       .  S
C1969      C1970   1.412       .  A
C1969      N1974   1.437       .  S
C1970      C1971   1.404       .  A
C1971      C1972   1.406       .  A
C1971      H1975   1.084       .  S
C1972      N1976   1.438       .  S
N1974      H1977   1.046       .  S
N1974      H1978   1.046       .  S
N1976      H1979   1.046       .  S
N1976      H1980   1.046       .  S
C1985      C1986   1.415       .  A
C1985      C1990   1.405       .  A
C1986      C1987   1.407       .  A
C1986      N1991   1.438       .  S
C1987      C1988   1.401       .  A
C1987      H1992   1.084       .  S
C1988      C1993   1.479       .  S
C1988      C1989   1.408       .  A
C1989      C1990   1.403       .  A
C1989      N1994   1.438       .  S
C1990      H1995   1.084       .  S
N1991      H2011   1.046       .  S
N1991      H2012   1.046       .  S
C1993      C1996   1.399       .  A
C1993      C2000   1.408       .  A
N1994      H2009   1.046       .  S
N1994      H2010   1.046       .  S
C1996      C1997   1.405       .  A
C1996      H2001   1.084       .  S
C1997      C1998   1.417       .  A
C1997      N2002   1.438       .  S
C1998      C1999   1.406       .  A
C1999      C2000   1.406       .  A
C1999      H2003   1.083       .  S
C2000      N2004   1.438       .  S
N2002      H2005   1.047       .  S
N2002      H2006   1.043       .  S
N2004      H2007   1.046       .  S
N2004      H2008   1.046       .  S
C2013      C2014   1.415       .  A
C2013      C2018   1.406       .  A
C2014      C2015   1.408       .  A
C2014      N2019   1.437       .  S
C2015      C2016   1.403       .  A
C2015      H2020   1.084       .  S
C2016      C2021   1.483       .  S
C2016      C2017   1.409       .  A
C2017      C2018   1.402       .  A
C2017      N2022   1.438       .  S
C2018      H2023   1.083       .  S
N2019      H2039   1.046       .  S
N2019      H2040   1.046       .  S
C2021      C2024   1.401       .  A
C2021      C2028   1.408       .  A
N2022      H2037   1.046       .  S
N2022      H2038   1.046       .  S
C2024      C2025   1.405       .  A
C2024      H2029   1.084       .  S
C2025      C2026   1.417       .  A
C2025      N2030   1.438       .  S
C2026      C2027   1.408       .  A
C2027      C2028   1.405       .  A
C2027      H2031   1.083       .  S
C2028      N2032   1.438       .  S
N2030      H2033   1.046       .  S
N2030      H2034   1.046       .  S
N2032      H2035   1.046       .  S
N2032      H2036   1.046       .  S
C2041      C2042   1.414       .  A
C2041      C2046   1.405       .  A
C2042      C2043   1.403       .  A
C2042      N2047   1.438       .  S
C2043      C2044   1.399       .  A
C2043      H2048   1.084       .  S
C2044      C2049   1.473       .  S
C2044      C2045   1.407       .  A
C2045      C2046   1.405       .  A
C2045      N2050   1.438       .  S
C2046      H2051   1.083       .  S
N2047      H2067   1.046       .  S
N2047      H2068   1.046       .  S
C2049      C2052   1.399       .  A
C2049      C2056   1.407       .  A
N2050      H2065   1.046       .  S
N2050      H2066   1.045       .  S
C2052      C2053   1.403       .  A
C2052      H2057   1.084       .  S
C2053      C2054   1.414       .  A
C2053      N2058   1.438       .  S
C2054      C2055   1.405       .  A
C2055      C2056   1.405       .  A
C2055      H2059   1.084       .  S
C2056      N2060   1.438       .  S
N2058      H2061   1.046       .  S
N2058      H2062   1.046       .  S
N2060      H2063   1.046       .  S
N2060      H2064   1.045       .  S
C2069      C2070   1.415       .  A
C2069      C2074   1.405       .  A
C2070      C2071   1.404       .  A
C2070      N2075   1.438       .  S
C2071      C2072   1.400       .  A
C2071      H2076   1.084       .  S
C2072      C2077   1.477       .  S
C2072      C2073   1.407       .  A
C2073      C2074   1.406       .  A
C2073      N2078   1.437       .  S
C2074      H2079   1.083       .  S
N2075      H2095   1.046       .  S
N2075      H2096   1.046       .  S
C2077      C2080   1.399       .  A
C2077      C2084   1.409       .  A
N2078      H2093   1.046       .  S
N2078      H2094   1.046       .  S
C2080      C2081   1.404       .  A
C2080      H2085   1.084       .  S
C2081      C2082   1.413       .  A
C2081      N2086   1.437       .  S
C2082      C2083   1.403       .  A
C2083      C2084   1.407       .  A
C2083      H2087   1.084       .  S
C2084      N2088   1.437       .  S
N2086      H2089   1.047       .  S
N2086      H2090   1.044       .  S
N2088      H2091   1.046       .  S
N2088      H2092   1.046       .  S
C2097      C2098   1.414       .  A
C2097      C2102   1.405       .  A
C2098      C2099   1.408       .  A
C2098      N2103   1.438       .  S
C2099      C2100   1.405       .  A
C2099      H2104   1.083       .  S
C2100      C2105   1.490       .  S
C2100      C2101   1.412       .  A
C2101      C2102   1.402       .  A
C2101      N2106   1.438       .  S
C2102      H2107   1.084       .  S
N2103      H2123   1.045       .  S
N2103      H2124   1.046       .  S
C2105      C2108   1.404       .  A
C2105      C2112   1.414       .  A
N2106      H2121   1.046       .  S
N2106      H2122   1.045       .  S
C2108      C2109   1.403       .  A
C2108      H2113   1.084       .  S
C2109      C2110   1.413       .  A
C2109      N2114   1.438       .  S
C2110      C2111   1.404       .  A
C2111      C2112   1.408       .  A
C2111      H2115   1.084       .  S
C2112      N2116   1.438       .  S
N2114      H2117   1.046       .  S
N2114      H2118   1.046       .  S
N2116      H2119   1.046       .  S
N2116      H2120   1.046       .  S
C2125      C2126   1.417   1_554  A
C2125      C2130   1.405       .  A
C2126      C2127   1.408       .  A
C2126      N2131   1.438       .  S
C2127      C2128   1.402   1_556  A
C2127      H2132   1.084       .  S
C2128      C2133   1.482   1_554  S
C2128      C2129   1.409       .  A
C2129      C2130   1.403       .  A
C2129      N2134   1.438       .  S
C2130      H2135   1.084       .  S
N2131      H2151   1.046       .  S
N2131      H2152   1.046       .  S
C2133      C2136   1.401   1_556  A
C2133      C2140   1.409       .  A
N2134      H2149   1.046       .  S
N2134      H2150   1.046       .  S
C2136      C2137   1.406       .  A
C2136      H2141   1.084       .  S
C2137      C2138   1.416   1_554  A
C2137      N2142   1.438       .  S
C2138      C2139   1.406       .  A
C2139      C2140   1.406       .  A
C2139      H2143   1.084       .  S
C2140      N2144   1.438       .  S
N2142      H2145   1.046       .  S
N2142      H2146   1.046       .  S
N2144      H2147   1.046       .  S
N2144      H2148   1.046       .  S
C2153      C2154   1.418       .  A
C2153      C2158   1.406       .  A
C2154      C2155   1.407       .  A
C2154      N2159   1.438       .  S
C2155      C2156   1.402       .  A
C2155      H2160   1.084       .  S
C2156      C2161   1.488       .  S
C2156      C2157   1.410       .  A
C2157      C2158   1.405       .  A
C2157      N2162   1.438       .  S
C2158      H2163   1.083       .  S
N2159      H2179   1.045       .  S
N2159      H2180   1.046       .  S
C2161      C2164   1.401       .  A
C2161      C2168   1.410       .  A
N2162      H2177   1.046       .  S
N2162      H2178   1.046       .  S
C2164      C2165   1.405       .  A
C2164      H2169   1.084       .  S
C2165      C2166   1.418       .  A
C2165      N2170   1.438       .  S
C2166      C2167   1.408       .  A
C2167      C2168   1.409       .  A
C2167      H2171   1.083       .  S
C2168      N2172   1.438       .  S
N2170      H2173   1.046       .  S
N2170      H2174   1.045       .  S
N2172      H2175   1.046       .  S
N2172      H2176   1.046       .  S
C2181      C2182   1.414       .  A
C2181      C2186   1.407       .  A
C2182      C2183   1.409       .  A
C2182      N2187   1.437       .  S
C2183      C2184   1.403       .  A
C2183      H2188   1.084       .  S
C2184      C2189   1.484       .  S
C2184      C2185   1.408       .  A
C2185      C2186   1.405       .  A
C2185      N2190   1.438       .  S
C2186      H2191   1.083       .  S
N2187      H2207   1.046       .  S
N2187      H2208   1.046       .  S
C2189      C2192   1.402       .  A
C2189      C2196   1.409       .  A
N2190      H2205   1.046       .  S
N2190      H2206   1.046       .  S
C2192      C2193   1.406       .  A
C2192      H2197   1.084       .  S
C2193      C2194   1.413       .  A
C2193      N2198   1.438       .  S
C2194      C2195   1.406       .  A
C2195      C2196   1.408       .  A
C2195      H2199   1.084       .  S
C2196      N2200   1.437       .  S
N2198      H2201   1.046       .  S
N2198      H2202   1.045       .  S
N2200      H2203   1.046       .  S
N2200      H2204   1.046       .  S
