geometry optimzed in LAMMPS
_audit_creation_date              2020-12-01 
_audit_creation_method            'lammps2cif' 
_symmetry_space_group_name_H-M    'P1' 
_symmetry_Int_Tables_number       1 
_symmetry_cell_setting            triclinic 
loop_ 
_symmetry_equiv_pos_as_xyz 
  x,y,z 
_cell_length_a                    33.93109043 
_cell_length_b                    33.95342886029995 
_cell_length_c                    26.80621010398396 
_cell_angle_alpha                 89.29259472544153 
_cell_angle_beta                  91.20525929184315 
_cell_angle_gamma                 89.79044168066899 
loop_ 
_atom_site_label 
_atom_site_type_symbol 
_atom_site_fract_x 
_atom_site_fract_y 
_atom_site_fract_z 
_atom_site_charge 
C1          C  0.24129795  0.24986223  0.75389798    -0.02200
C2          C  0.13754351  0.09428466  0.51405438     0.42700
N3          N  0.16924623  0.04288625  0.49266307     0.01600
C4          C  0.28936619  0.42430682  0.62787529    -0.06200
H5          H  0.31921328  0.08461875  0.63754508     0.07100
C6          C  0.34890654  0.07348354  0.46603532    -0.06600
Co7        Co  0.20274003  0.49934283  0.56755547     0.74200
N8          N  0.27539566  0.04198989  0.61392267    -0.25800
Co9        Co  0.30403706  0.50246488  0.56496608     0.74100
C10         C  0.36441252  0.09193745  0.51103744     0.42800
N11         N  0.26450707  0.04451766  0.40712669     0.01300
N12         N  0.33232023  0.04090008  0.53205558     0.01400
N13         N  0.22293353  0.42517285  0.62974181    -0.46600
H14         H  0.14880534  0.08133471  0.59774578     0.07100
N15         N  0.23667576  0.04148759  0.61742037     0.01600
N16         N  0.33494008  0.46105098  0.52410474     0.01400
C17         C  0.37138869  0.41301570  0.50278666     0.43000
N18         N  0.22576714  0.04497395  0.41001769    -0.25200
C19         C  0.15423372  0.42367556  0.54729956    -0.06100
N20         N  0.14909476  0.07343648  0.47458613    -0.46300
N21         N  0.35800338  0.43260605  0.54247273    -0.46600
C22         C  0.14123727  0.40219961  0.50329877     0.42800
N23         N  0.23660338  0.45680555  0.60640011     0.01600
N24         N  0.23151438  0.45467418  0.39911329    -0.25200
N25         N  0.17161426  0.04238924  0.54193663    -0.25700
N26         N  0.27024678  0.45699103  0.39693164     0.01300
H27         H  0.18973112  0.41107481  0.37308046     0.07200
H28         H  0.35990778  0.42533782  0.41916391     0.07200
N29         N  0.27541955  0.45712692  0.60452487    -0.25800
N30         N  0.32928765  0.04208552  0.48285218    -0.25400
N31         N  0.17262918  0.45347524  0.47987381     0.01600
C32         C  0.25365587  0.09542034  0.65349588     0.43000
C33         C  0.21214275  0.07813055  0.38708736    -0.06700
N34         N  0.33315091  0.46141360  0.47480680    -0.25400
H35         H  0.35202764  0.08199418  0.42732802     0.07200
N36         N  0.22260816  0.07256580  0.64089061    -0.46600
H37         H  0.18159665  0.08717016  0.38417432     0.07200
C38         C  0.25592032  0.40280257  0.35947333     0.42900
C39         C  0.15195919  0.07370870  0.55899175    -0.06200
Co40       Co  0.19909416  0.49733227  0.43704844     0.73800
N41         N  0.27843571  0.07585428  0.38325237    -0.46300
C42         C  0.25429253  0.40293797  0.64450881     0.43100
N43         N  0.15315065  0.42254074  0.46287176    -0.46300
Co44       Co  0.30019590  0.50270118  0.43428010     0.73900
C45         C  0.35531971  0.43204871  0.45793888    -0.06700
C46         C  0.28883614  0.07519039  0.63559674    -0.06200
N47         N  0.17363788  0.45480656  0.52911601    -0.25700
N48         N  0.35356672  0.07004950  0.55042895    -0.46500
H49         H  0.32004809  0.41583070  0.63135347     0.07100
C50         C  0.21975584  0.42140763  0.37644945    -0.06600
Cl51       Cl  0.25155178  0.50039719  0.50098720    -0.49600
C52         C  0.24727927  0.09880963  0.36941575     0.42900
H53         H  0.14991707  0.41707428  0.58635602     0.07100
N54         N  0.28603693  0.42655252  0.37357071    -0.46300
N55         N  0.99997183  0.31162729  0.50941263    -0.36300
N56         N  0.05660069  0.24955466  0.53525902    -0.56900
N57         N  0.99773938  0.19171050  0.50791317    -0.36300
N58         N  0.43917815  0.25096521  0.47431384    -0.56900
C59         C  0.03283390  0.33356421  0.51564386     0.27300
C60         C  0.47057296  0.33159352  0.46581744     0.27300
C61         C  0.03003670  0.16838215  0.51291023     0.27300
C62         C  0.46618067  0.16755294  0.48692778     0.27300
C63         C  0.07835431  0.28082418  0.54937985     0.35900
C64         C  0.07637986  0.21700535  0.55095529     0.35900
C65         C  0.41624652  0.28347567  0.47436704     0.35900
C66         C  0.41463946  0.22004151  0.47791881     0.35900
C67         C  0.02454259  0.37222507  0.50103425    -0.21600
C68         C  0.48454490  0.36664545  0.44616554    -0.21600
C69         C  0.02215064  0.13214501  0.49132446    -0.21600
C70         C  0.47867259  0.12890096  0.48152624    -0.21600
C71         C  0.11250417  0.26807807  0.57404897    -0.22700
C72         C  0.11116310  0.22759312  0.57525511    -0.22700
C73         C  0.37685390  0.27321174  0.47717174    -0.22700
C74         C  0.37580705  0.23283974  0.47904716    -0.22700
C75         C  0.06958392  0.32034572  0.53612597    -0.18000
C76         C  0.43038505  0.32218413  0.46995819    -0.18000
C77         C  0.42674529  0.18042008  0.47980248    -0.18000
C78         C  0.06572728  0.17818180  0.53830901    -0.18000
H79         H  0.04376280  0.39751839  0.50280202     0.14900
H80         H  0.46740677  0.39101271  0.43073072     0.14900
H81         H  0.04101235  0.10648087  0.49008015     0.14900
H82         H  0.46128670  0.10391946  0.46962565     0.14900
H83         H  0.13630593  0.28599013  0.58865570     0.13200
H84         H  0.13384597  0.20821258  0.59064694     0.13200
H85         H  0.35155367  0.29271549  0.47745702     0.13200
H86         H  0.34953756  0.21499285  0.48158712     0.13200
H87         H  0.99644943  0.28252816  0.51982165     0.26400
H88         H  0.99372970  0.21906328  0.52367862     0.26400
C89         C  0.25917365  0.24984507  0.25542917    -0.02200
N90         N  0.24998414  0.43743842  0.96589563    -0.36300
N91         N  0.18708166  0.99987850  0.95796033    -0.56900
N92         N  0.24755792  0.06074622  0.95573099    -0.36300
N93         N  0.30766665  0.00020785  0.97062408    -0.56900
C94         C  0.21870266  0.41350049  0.97218270     0.27300
C95         C  0.28293015  0.41531338  0.97124244     0.27300
C96         C  0.21515578  0.08310744  0.96186786     0.27300
C97         C  0.27901502  0.08323809  0.96744810     0.27300
C98         C  0.16516891  0.46424894  0.96317451     0.35900
C99         C  0.16440561  0.03153712  0.94653352     0.35900
C100        C  0.33315730  0.46897303  0.96239591     0.35900
C101        C  0.33077586  0.03168697  0.96159677     0.35900
C102        C  0.23195346  0.37527020  0.98087408    -0.21600
C103        C  0.27250962  0.37639828  0.98022223    -0.21600
C104        C  0.22614151  0.12058950  0.97674828    -0.21600
C105        C  0.26659509  0.12068129  0.98018927    -0.21600
C106        C  0.12621149  0.47501348  0.95389379    -0.22700
C107        C  0.12674868  0.01979561  0.93241961    -0.22700
C108        C  0.37097547  0.48172140  0.95215761    -0.22700
C109        C  0.36871415  0.01962566  0.95103628    -0.22700
C110        C  0.17859282  0.42494879  0.96886099    -0.18000
C111        C  0.32202561  0.42898247  0.96667646    -0.18000
C112        C  0.31860988  0.07125790  0.96508139    -0.18000
C113        C  0.17606846  0.07094559  0.95297777    -0.18000
H114        H  0.21428244  0.34920171  0.98670185     0.14900
H115        H  0.29204568  0.35134704  0.98549865     0.14900
H116        H  0.20703613  0.14531609  0.98430899     0.14900
H117        H  0.28476550  0.14543383  0.99095743     0.14900
H118        H  0.10105983  0.45583037  0.94892225     0.13200
H119        H  0.10182636  0.03839461  0.92213109     0.13200
H120        H  0.39663557  0.46382004  0.94488914     0.13200
H121        H  0.39379092  0.03795192  0.94253768     0.13200
H122        H  0.24906086  0.46699259  0.95673905     0.26400
H123        H  0.24824626  0.03233425  0.94209986     0.26400
C124        C  0.09018610  0.13177014  0.99625775     0.42700
N125        N  0.04264158  0.16594877  0.02329160     0.01600
C126        C  0.41746547  0.28898305  0.87949085    -0.06200
H127        H  0.08017007  0.32161538  0.88242217     0.07100
C128        C  0.07624764  0.34588717  0.06041609    -0.06600
Co129      Co  0.49552203  0.20194867  0.93199103     0.74200
N130        N  0.03980106  0.27661982  0.90761717    -0.25800
Co131      Co  0.49731546  0.30264800  0.93873732     0.74100
C132        C  0.09456539  0.36180167  0.01604944     0.42800
N133        N  0.04854305  0.25884152  0.11423196     0.01300
N134        N  0.04273819  0.33032037  0.99392388     0.01400
N135        N  0.41746581  0.22261070  0.87565310    -0.46600
H136        H  0.07505044  0.14802008  0.91444224     0.07100
N137        N  0.03931436  0.23806812  0.90225455     0.01600
N138        N  0.45712169  0.33112146  0.98365926     0.01400
C139        C  0.40904268  0.36569861  0.00894754     0.43000
N140        N  0.04845332  0.22026213  0.10904823    -0.25200
C141        C  0.42341690  0.15084674  0.95669119    -0.07300
N142        N  0.07168842  0.14216596  0.03803036    -0.46300
N143        N  0.42698445  0.35298689  0.96774577    -0.46600
C144        C  0.40661603  0.13403523  0.00157243     0.42800
N145        N  0.45015621  0.23572118  0.89789630     0.01600
N146        N  0.46095150  0.22504685  0.10453674    -0.25200
N147        N  0.04082132  0.17096617  0.97433030    -0.25700
N148        N  0.46151132  0.26378865  0.10786091     0.01300
H149        H  0.42010148  0.18089799  0.13055578     0.07200
H150        H  0.42556883  0.35435589  0.09143608     0.07200
N151        N  0.45084022  0.27442144  0.90083274    -0.25800
N152        N  0.04464900  0.32637894  0.04303644    -0.25400
N153        N  0.45721208  0.16771116  0.02226277     0.01600
C154        C  0.09062911  0.25674615  0.86233051     0.43000
C155        C  0.08243256  0.20576796  0.12924987    -0.06700
N156        N  0.45990032  0.32893860  0.03286161    -0.25400
H157        H  0.08548339  0.34811674  0.09912961     0.07200
N158        N  0.06907364  0.22497802  0.87546487    -0.46600
H159        H  0.09139592  0.17518226  0.12949162     0.07200
C160        C  0.40940207  0.24629745  0.14694089     0.42900
C161        C  0.06982765  0.15042653  0.95393988    -0.06200
Co162      Co  0.50254670  0.19506048  0.06229460     0.73800
N163        N  0.08097269  0.27180395  0.13709614    -0.46300
C164        C  0.39508261  0.25448010  0.86297362     0.43100
N165        N  0.42920036  0.14513881  0.04084335    -0.46300
Co166      Co  0.50405104  0.29633211  0.06909738     0.73900
C167        C  0.43082270  0.35033048  0.05217579    -0.06700
C168        C  0.07134498  0.29106535  0.88380472    -0.06200
N169        N  0.45458979  0.17111420  0.97315187    -0.25700
N170        N  0.07217045  0.35141881  0.97622415    -0.46500
H171        H  0.40936413  0.31978078  0.87720589     0.07100
C172        C  0.42908535  0.21136143  0.12815050    -0.06600
Cl173      Cl  0.49985749  0.24898399  0.00056443    -0.49600
C174        C  0.10417399  0.24018803  0.14783880     0.42900
H175        H  0.41459555  0.14735622  0.91801217     0.07100
N176        N  0.43115962  0.27773529  0.13292463    -0.46300
C177        C  0.37413757  0.10594505  0.00403441    -0.16100
C178        C  0.34895596  0.10211423  0.96533208    -0.31300
H179        H  0.37129616  0.08755445  0.03721868     0.12900
H180        H  0.34997770  0.12201129  0.93335235     0.13500
C181        C  0.14816494  0.39398436  0.97155690    -0.16100
C182        C  0.12944030  0.38713557  0.01426737    -0.31300
H183        H  0.13917029  0.37930210  0.93740577     0.12900
H184        H  0.13926426  0.40147485  0.04832539     0.13500
C185        C  0.37470950  0.39183270  0.00898922    -0.16100
C186        C  0.35390990  0.39943021  0.96702305    -0.31300
H187        H  0.36665460  0.40560801  0.04372966     0.12900
H188        H  0.36102254  0.38524753  0.93221432     0.13500
C189        C  0.14491737  0.10096797  0.95441673    -0.16100
C190        C  0.12283645  0.10387043  0.99489852    -0.31300
H191        H  0.14083193  0.12076094  0.92258836     0.12900
H192        H  0.12885362  0.08519826  0.02742705     0.13500
C193        C  0.37020068  0.25779520  0.22333317    -0.13100
C194        C  0.37112709  0.24817454  0.17283442     0.09100
C195        C  0.33542686  0.23956550  0.14783013    -0.13100
C196        C  0.29929973  0.24088057  0.17287484    -0.13100
C197        C  0.29800065  0.24932107  0.22442582     0.09100
C198        C  0.33450986  0.25798864  0.24873721    -0.13100
H199        H  0.39732414  0.26434901  0.24353834     0.13100
H200        H  0.33545496  0.23218687  0.10863120     0.13100
H201        H  0.27281178  0.23481418  0.15144307     0.13100
H202        H  0.33543414  0.26449479  0.28818702     0.13100
C203        C  0.15633878  0.27772313  0.19452624    -0.13100
C204        C  0.14446532  0.24264971  0.17181787     0.09100
C205        C  0.17125205  0.21087682  0.17288282    -0.13100
C206        C  0.20859695  0.21413267  0.19687337    -0.13100
C207        C  0.22039247  0.24902267  0.22165367     0.09100
C208        C  0.19289056  0.28071541  0.21946247    -0.13100
H209        H  0.13661634  0.30288363  0.19454925     0.13100
H210        H  0.16329970  0.18334806  0.15548044     0.13100
H211        H  0.22788705  0.18864714  0.19773144     0.13100
H212        H  0.19810691  0.30812633  0.23817456     0.13100
C213        C  0.26828716  0.36170605  0.28419499    -0.13100
C214        C  0.25989001  0.36382614  0.33498361     0.09100
C215        C  0.25338333  0.32853064  0.36145834    -0.13100
C216        C  0.25440675  0.29181715  0.33741004    -0.13100
C217        C  0.26058514  0.28937538  0.28547779     0.09100
C218        C  0.26853184  0.32530451  0.25988939    -0.13100
H219        H  0.27344848  0.38841645  0.26284389     0.13100
H220        H  0.24727768  0.32938919  0.40092391     0.13100
H221        H  0.24949010  0.26574795  0.35980957     0.13100
H222        H  0.27381175  0.32524002  0.22018568     0.13100
C223        C  0.21909326  0.16524521  0.34079028    -0.13100
C224        C  0.25050069  0.13805724  0.34343015     0.09100
C225        C  0.28578994  0.14859354  0.32062840    -0.13100
C226        C  0.28926351  0.18420516  0.29402552    -0.13100
C227        C  0.25790061  0.21203009  0.29033522     0.09100
C228        C  0.22291913  0.20171023  0.31542109    -0.13100
H229        H  0.19145037  0.15836537  0.35827713     0.13100
H230        H  0.31069947  0.12853421  0.32193077     0.13100
H231        H  0.31680683  0.18859954  0.27557547     0.13100
H232        H  0.19779172  0.22146797  0.31382127     0.13100
C233        C  0.40162917  0.35473994  0.46726041    -0.16100
C234        C  0.39824932  0.37925548  0.50568594    -0.31300
H235        H  0.38295575  0.35788767  0.43403555     0.12900
H236        H  0.41540639  0.37419739  0.53987583     0.13500
C237        C  0.11325842  0.12995097  0.50910076    -0.16100
C238        C  0.09518380  0.14642843  0.54761044    -0.31300
H239        H  0.10731190  0.14127351  0.47156388     0.12900
H240        H  0.10070670  0.13604253  0.58559077     0.13500
C241        C  0.10144466  0.34978497  0.54146090    -0.16100
C242        C  0.11583041  0.36744878  0.50068982    -0.31300
H243        H  0.11141557  0.35793857  0.57865231     0.12900
H244        H  0.10595888  0.35796947  0.46392265     0.13500
C245        C  0.39027008  0.12587697  0.51492475    -0.16100
C246        C  0.39610067  0.15001471  0.47611375    -0.31300
H247        H  0.40616899  0.13040700  0.55001629     0.12900
H248        H  0.37897675  0.14747212  0.44162087     0.13500
C249        C  0.29317509  0.28487258  0.81099209    -0.13100
C250        C  0.27902986  0.24963978  0.78926368     0.09100
C251        C  0.30280844  0.21551729  0.79718197    -0.13100
C252        C  0.33968095  0.21722260  0.82169416    -0.13100
C253        C  0.35461465  0.25291128  0.83963391     0.09100
C254        C  0.33046310  0.28659849  0.83500701    -0.13100
H255        H  0.27600216  0.31173629  0.80736203     0.13100
H256        H  0.29382083  0.18702656  0.78376168     0.13100
H257        H  0.35699830  0.19045689  0.82557293     0.13100
H258        H  0.34050075  0.31453611  0.84942445     0.13100
C259        C  0.16537787  0.24310363  0.76031462    -0.13100
C260        C  0.20209144  0.25138039  0.78448739     0.09100
C261        C  0.20070977  0.26131159  0.83561103    -0.13100
C262        C  0.16457274  0.26378582  0.86049644    -0.13100
C263        C  0.12875994  0.25511040  0.83584704     0.09100
C264        C  0.12963019  0.24435411  0.78566579    -0.13100
H265        H  0.16443768  0.23583178  0.72107802     0.13100
H266        H  0.22721592  0.26774425  0.85684215     0.13100
H267        H  0.16465101  0.27195253  0.89943107     0.13100
H268        H  0.10245680  0.23759535  0.76568537     0.13100
C269        C  0.27947265  0.30048183  0.69849466    -0.13100
C270        C  0.24324343  0.28789655  0.71904859     0.09100
C271        C  0.21104125  0.31454582  0.71237310    -0.13100
C272        C  0.21484840  0.35085682  0.68755926    -0.13100
C273        C  0.25109230  0.36322085  0.66900089     0.09100
C274        C  0.28335799  0.33737590  0.67432449    -0.13100
H275        H  0.30583238  0.28275652  0.70369220     0.13100
H276        H  0.18240783  0.30893656  0.72719446     0.13100
H277        H  0.18923531  0.36992498  0.68416983     0.13100
H278        H  0.31186639  0.34582338  0.66042309     0.13100
C279        C  0.22209395  0.17623854  0.74090239    -0.13100
C280        C  0.24143419  0.21056003  0.72285533     0.09100
C281        C  0.26611194  0.20504096  0.68139379    -0.13100
C282        C  0.27074836  0.16779422  0.65938808    -0.13100
C283        C  0.25014960  0.13482961  0.67703287     0.09100
C284        C  0.22527800  0.13974389  0.71742106    -0.13100
H285        H  0.20525026  0.17679182  0.77465609     0.13100
H286        H  0.28283298  0.22895914  0.66604976     0.13100
H287        H  0.29017385  0.16486683  0.62808775     0.13100
H288        H  0.20946052  0.11473146  0.73236365     0.13100
C289        C  0.24465445  0.74511943  0.75873122    -0.02200
C290        C  0.13615960  0.59097782  0.49380545     0.42700
N291        N  0.16870290  0.53932573  0.47655345     0.01600
C292        C  0.28927675  0.92000718  0.63527450    -0.06200
H293        H  0.31497569  0.58663282  0.63290164     0.07100
C294        C  0.34779748  0.57945731  0.45741011    -0.06600
Co295      Co  0.20346514  0.99857364  0.58063666     0.74200
N296        N  0.27217938  0.54524282  0.60370796    -0.25800
Co297      Co  0.30470414  0.99778278  0.57370675     0.74100
C298        C  0.36039308  0.59973586  0.50272429     0.42800
N299        N  0.26552396  0.54483044  0.39588805     0.01300
N300        N  0.33027858  0.54694539  0.52322856     0.01400
N301        N  0.22301045  0.92238712  0.64024118    -0.46600
H302        H  0.14678782  0.58187317  0.57841321     0.07100
N303        N  0.23335256  0.54426006  0.60477373     0.01600
N304        N  0.33220392  0.95511876  0.53078773     0.01400
C305        C  0.36532660  0.90506575  0.50761451     0.43000
N306        N  0.22676357  0.54288930  0.39697092    -0.25200
C307        C  0.15272399  0.92484162  0.55967070    -0.06100
N308        N  0.14834108  0.56873842  0.45608295    -0.46300
N309        N  0.35349909  0.92493907  0.54788840    -0.46600
C310        C  0.13864096  0.90451533  0.51559435     0.42800
N311        N  0.23675769  0.95402040  0.61686288     0.01600
N312        N  0.22579137  0.95653611  0.40987531    -0.25200
N313        N  0.17047353  0.54084280  0.52577386    -0.25700
N314        N  0.26450862  0.95689049  0.40637654     0.01300
H315        H  0.18140287  0.91507005  0.38492237     0.07200
H316        H  0.35342739  0.91931690  0.42442595     0.07200
N317        N  0.27545275  0.95340309  0.61341379    -0.25800
N318        N  0.32898216  0.54723072  0.47389970    -0.25400
N319        N  0.16920090  0.95638144  0.49259183     0.01600
C320        C  0.24881381  0.59684648  0.64481014     0.43000
C321        C  0.21171585  0.57534962  0.37391596    -0.06700
N322        N  0.32965749  0.95627323  0.48153133    -0.25400
H323        H  0.35169544  0.58773643  0.41875590     0.07200
N324        N  0.21816391  0.57447615  0.62909911    -0.46600
H325        H  0.18079483  0.58274262  0.37004391     0.07200
C326        C  0.24681819  0.90373520  0.36924608     0.42900
C327        C  0.15026660  0.57256282  0.54033851    -0.06200
Co328      Co  0.19658222  0.00017639  0.45020081     0.73800
N329        N  0.27811300  0.57735602  0.37343136    -0.46300
C330        C  0.25434293  0.89930444  0.65295303     0.43100
N331        N  0.14946653  0.92568096  0.47522677    -0.46300
Co332      Co  0.29766480  0.99999497  0.44338328     0.73900
C333        C  0.35000913  0.92588736  0.46346005    -0.06700
C334        C  0.28466100  0.57748860  0.62809747    -0.06200
N335        N  0.17173076  0.95630895  0.54184996    -0.25700
N336        N  0.34884614  0.57778607  0.54183483    -0.46500
H337        H  0.31980664  0.91081726  0.63729965     0.07100
C338        C  0.21192687  0.92397903  0.38736418    -0.06600
Cl339      Cl  0.25061438  0.99913061  0.51197436    -0.49600
C340        C  0.24591642  0.59842806  0.35858911     0.42900
H341        H  0.15003123  0.91669738  0.59856300     0.07100
N342        N  0.27827544  0.92598777  0.38217764    -0.46300
N343        N  0.00483052  0.80938533  0.46950980    -0.36300
N344        N  0.06271584  0.74860251  0.49068979    -0.56900
N345        N  0.99866073  0.69140490  0.49846210    -0.36300
N346        N  0.44727584  0.75262487  0.48237633    -0.56900
C347        C  0.03809741  0.82899941  0.45816535     0.27300
C348        C  0.47476396  0.83438532  0.50054788     0.27300
C349        C  0.03064135  0.66758738  0.49946625     0.27300
C350        C  0.46869239  0.67028800  0.50893273     0.27300
C351        C  0.08695075  0.78003740  0.49169920     0.35900
C352        C  0.08343004  0.71795297  0.51019208     0.35900
C353        C  0.42897802  0.78495965  0.46341295     0.35900
C354        C  0.42710139  0.72119370  0.46537165     0.35900
C355        C  0.02830883  0.86408572  0.43373307    -0.21600
C356        C  0.48333528  0.87148243  0.51921546    -0.21600
C357        C  0.01923789  0.62949026  0.48776581    -0.21600
C358        C  0.47441447  0.63360522  0.53168673    -0.21600
C359        C  0.12368353  0.76913294  0.51094362    -0.22700
C360        C  0.12142301  0.72970650  0.52280350    -0.22700
C361        C  0.39662851  0.77411636  0.43432800    -0.22700
C362        C  0.39551989  0.73359122  0.43541866    -0.22700
C363        C  0.07670278  0.81790807  0.47326440    -0.18000
C364        C  0.43854171  0.82378642  0.47706681    -0.18000
C365        C  0.43440060  0.68204169  0.48130974    -0.18000
C366        C  0.06957974  0.67890842  0.51242418    -0.18000
H367        H  0.04814939  0.88670645  0.42074751     0.14900
H368        H  0.46453654  0.89724987  0.51941068     0.14900
H369        H  0.03751467  0.60340938  0.48602932     0.14900
H370        H  0.45434473  0.60900739  0.53304120     0.14900
H371        H  0.14949077  0.78748840  0.51547563     0.13200
H372        H  0.14521115  0.71161466  0.53803787     0.13200
H373        H  0.37556922  0.79336127  0.41527284     0.13200
H374        H  0.37337119  0.71543788  0.41747630     0.13200
H375        H  0.00280348  0.78402450  0.49108478     0.26400
H376        H  0.99819692  0.72068699  0.50890319     0.26400
C377        C  0.25259658  0.75490665  0.25708202    -0.02200
N378        N  0.24723051  0.93917213  0.96450297    -0.36300
N379        N  0.18782239  0.49669977  0.96758280    -0.56900
N380        N  0.24697502  0.55938444  0.96316035    -0.36300
N381        N  0.30930881  0.50022064  0.96958874    -0.56900
C382        C  0.21482228  0.91754105  0.97413610     0.27300
C383        C  0.27899331  0.91749807  0.97895464     0.27300
C384        C  0.21416412  0.58100016  0.97034193     0.27300
C385        C  0.27832983  0.58281756  0.97246664     0.27300
C386        C  0.16414206  0.96798476  0.95076115     0.35900
C387        C  0.16361176  0.52796686  0.96035408     0.35900
C388        C  0.33070796  0.96812481  0.96523857     0.35900
C389        C  0.33162786  0.53271277  0.96328951     0.35900
C390        C  0.22619522  0.88131718  0.99428460    -0.21600
C391        C  0.26677388  0.88130290  0.99733424    -0.21600
C392        C  0.22473754  0.61901403  0.98337353    -0.21600
C393        C  0.26526617  0.62013524  0.98480501    -0.21600
C394        C  0.12656905  0.97946299  0.93511541    -0.22700
C395        C  0.12524350  0.51533755  0.95196460    -0.22700
C396        C  0.36866877  0.97930052  0.95327880    -0.22700
C397        C  0.36999148  0.52206855  0.95269494    -0.22700
C398        C  0.17553183  0.92900344  0.96278351    -0.18000
C399        C  0.31863862  0.92894549  0.97379212    -0.18000
C400        C  0.31833997  0.57190282  0.96851030    -0.18000
C401        C  0.17497771  0.56782567  0.96391336    -0.18000
H402        H  0.20731869  0.85725872  0.00532286     0.14900
H403        H  0.28517885  0.85734320  0.01133836     0.14900
H404        H  0.20530069  0.64342554  0.99116189     0.14900
H405        H  0.28306164  0.64556068  0.99386596     0.14900
H406        H  0.10142662  0.96080128  0.92743941     0.13200
H407        H  0.09916140  0.53328943  0.94552455     0.13200
H408        H  0.39376794  0.96038859  0.94693258     0.13200
H409        H  0.39469058  0.54133703  0.94584976     0.13200
H410        H  0.24789758  0.96633207  0.94647555     0.26400
H411        H  0.24778350  0.53083442  0.95026881     0.26400
C412        C  0.08979739  0.63321383  0.00153543     0.42700
N413        N  0.04102053  0.66759608  0.02523771     0.01600
C414        C  0.41919533  0.79150732  0.88666434    -0.06200
H415        H  0.08407054  0.81720668  0.88158889     0.07100
C416        C  0.07388654  0.84909635  0.05560172    -0.06600
Co417      Co  0.49685853  0.70531841  0.94233296     0.74200
N418        N  0.04115208  0.77420287  0.90564900    -0.25800
Co419      Co  0.49808662  0.80641061  0.94917683     0.74100
C420        C  0.09294834  0.86407552  0.01110520     0.42800
N421        N  0.04445774  0.76315925  0.11201893     0.01300
N422        N  0.04208591  0.83117265  0.98892328     0.01400
N423        N  0.42134838  0.72524567  0.88145662    -0.46600
H424        H  0.07530170  0.64604840  0.91851447     0.07100
N425        N  0.03976122  0.73553697  0.90173169     0.01600
N426        N  0.45690017  0.83510384  0.99281099     0.01400
C427        C  0.40880937  0.87028256  0.01709511     0.43000
N428        N  0.04467412  0.72447292  0.10819050    -0.25200
C429        C  0.42347407  0.65374208  0.96297763    -0.07300
N430        N  0.07054701  0.64521956  0.04205631    -0.46300
N431        N  0.42684806  0.85688507  0.97624091    -0.46600
C432        C  0.40476145  0.63738429  0.00699673     0.42800
N433        N  0.45276600  0.73897868  0.90583716     0.01600
N434        N  0.45651928  0.72994317  0.11273935    -0.25200
N435        N  0.03959119  0.67052297  0.97604432    -0.25700
N436        N  0.45835585  0.76862431  0.11669928     0.01300
H437        H  0.41356261  0.68713190  0.13680049     0.07200
H438        H  0.42500081  0.85999682  0.09984277     0.07200
N439        N  0.45240170  0.77768267  0.90947315    -0.25800
N440        N  0.04273555  0.82881410  0.03818308    -0.25400
N441        N  0.45445364  0.67174700  0.03024327     0.01600
C442        C  0.09343927  0.75148688  0.86499784     0.43000
C443        C  0.07833033  0.71048884  0.12953474    -0.06700
N444        N  0.45941327  0.83357554  0.04205835    -0.25400
H445        H  0.08221587  0.85268738  0.09443174     0.07200
N446        N  0.07029837  0.72083778  0.87776504    -0.46600
H447        H  0.08738801  0.67994012  0.13111871     0.07200
C448        C  0.40486150  0.75277188  0.15377297     0.42900
C449        C  0.06927488  0.64955521  0.95764571    -0.06200
Co450      Co  0.49880238  0.69881836  0.07258422     0.73800
N451        N  0.07653081  0.77674582  0.13499830    -0.46300
C452        C  0.39848882  0.75651143  0.86806185     0.43100
N453        N  0.42577023  0.64923506  0.04732804    -0.46300
Co454      Co  0.50239847  0.80028940  0.07958576     0.73900
C455        C  0.43049229  0.85555904  0.06071605    -0.06700
C456        C  0.07415385  0.78701427  0.88344045    -0.06200
N457        N  0.45397886  0.67444312  0.98101662    -0.25700
N458        N  0.07155323  0.85215339  0.97120613    -0.46500
H459        H  0.41030203  0.82208818  0.88412968     0.07100
C460        C  0.42362528  0.71727702  0.13499438    -0.06600
Cl461      Cl  0.49902153  0.75270674  0.01090133    -0.49600
C462        C  0.09956731  0.74534607  0.14716162     0.42900
H463        H  0.41622038  0.64967179  0.92391463     0.07100
N464        N  0.42801049  0.78346710  0.14094779    -0.46300
C465        C  0.37237724  0.60879345  0.00842778    -0.16100
C466        C  0.34818908  0.60358290  0.96888530    -0.31300
H467        H  0.36870858  0.59114315  0.04208693     0.12900
H468        H  0.35020274  0.62238503  0.93597865     0.13500
C469        C  0.14394811  0.89920308  0.96517290    -0.16100
C470        C  0.12819294  0.88898654  0.00888679    -0.31300
H471        H  0.13092507  0.88906747  0.93027201     0.12900
H472        H  0.14078759  0.90012092  0.04351940     0.13500
C473        C  0.37473438  0.89684439  0.01647578    -0.16100
C474        C  0.34953773  0.89826489  0.97741886    -0.31300
H475        H  0.37049654  0.91598396  0.04813190     0.12900
H476        H  0.35226305  0.87777592  0.94684904     0.13500
C477        C  0.14337484  0.59769042  0.96210303    -0.16100
C478        C  0.12400795  0.60677866  0.00336824    -0.31300
H479        H  0.13515269  0.61054580  0.92609915     0.12900
H480        H  0.13304986  0.59378564  0.03907880     0.13500
C481        C  0.36397847  0.76564756  0.22842395    -0.13100
C482        C  0.36601048  0.75591146  0.17802368     0.09100
C483        C  0.33083028  0.74786873  0.15159264    -0.13100
C484        C  0.29417406  0.74911009  0.17529756    -0.13100
C485        C  0.29181247  0.75675427  0.22693957     0.09100
C486        C  0.32773583  0.76563828  0.25256408    -0.13100
H487        H  0.39067540  0.77195445  0.24966643     0.13100
H488        H  0.33172340  0.74064929  0.11238639     0.13100
H489        H  0.26819052  0.74320636  0.15284100     0.13100
H490        H  0.32783072  0.77159737  0.29216264     0.13100
C491        C  0.14985353  0.78247449  0.19678232    -0.13100
C492        C  0.13939879  0.74813881  0.17152259     0.09100
C493        C  0.16707991  0.71725845  0.17039353    -0.13100
C494        C  0.20399667  0.72050036  0.19515196    -0.13100
C495        C  0.21439621  0.75450533  0.22260804     0.09100
C496        C  0.18608763  0.78549055  0.22223300    -0.13100
H497        H  0.12926783  0.80687097  0.19839712     0.13100
H498        H  0.16013279  0.69043138  0.15071403     0.13100
H499        H  0.22403244  0.69562732  0.19446807     0.13100
H500        H  0.19046777  0.81226026  0.24272248     0.13100
C501        C  0.26048512  0.86518087  0.29292781    -0.13100
C502        C  0.24883671  0.86570416  0.34257634     0.09100
C503        C  0.23926972  0.82985443  0.36608552    -0.13100
C504        C  0.24166403  0.79394463  0.34034159    -0.13100
C505        C  0.25218835  0.79312122  0.28953755     0.09100
C506        C  0.26145934  0.82982171  0.26667637    -0.13100
H507        H  0.26789006  0.89241840  0.27391918     0.13100
H508        H  0.23038269  0.82958838  0.40466239     0.13100
H509        H  0.23458333  0.76729446  0.36047384     0.13100
H510        H  0.26902616  0.83120547  0.22765840     0.13100
C511        C  0.21497377  0.66483542  0.33517692    -0.13100
C512        C  0.24734654  0.63876789  0.33555709     0.09100
C513        C  0.28213521  0.65156750  0.31361702    -0.13100
C514        C  0.28444269  0.68855295  0.29030924    -0.13100
C515        C  0.25226911  0.71552782  0.28907051     0.09100
C516        C  0.21752092  0.70262635  0.31282141    -0.13100
H517        H  0.18762622  0.65606511  0.35210027     0.13100
H518        H  0.30763911  0.63230160  0.31307575     0.13100
H519        H  0.31183144  0.69461129  0.27226008     0.13100
H520        H  0.19165112  0.72140644  0.31248930     0.13100
C521        C  0.40773842  0.85455742  0.47039392    -0.16100
C522        C  0.39144631  0.87058363  0.51060080    -0.31300
H523        H  0.39948070  0.86438534  0.43291784     0.12900
H524        H  0.39984764  0.85959317  0.54759357     0.13500
C525        C  0.11309030  0.62692424  0.48590000    -0.16100
C526        C  0.09838202  0.64728410  0.52351873    -0.31300
H527        H  0.10559554  0.63553409  0.44763935     0.12900
H528        H  0.10498486  0.63933413  0.56214203     0.13500
C529        C  0.10686171  0.84919312  0.47273277    -0.16100
C530        C  0.11593425  0.86788533  0.51505203    -0.31300
H531        H  0.11673394  0.86055832  0.43706118     0.12900
H532        H  0.10482067  0.85684958  0.55028168     0.13500
C533        C  0.38433381  0.63532441  0.50845343    -0.16100
C534        C  0.40382961  0.65197528  0.47078226    -0.31300
H535        H  0.38942283  0.64587201  0.54617169     0.12900
H536        H  0.39919551  0.64230413  0.43266382     0.13500
C537        C  0.29347316  0.77968798  0.82016800    -0.13100
C538        C  0.28358230  0.74589899  0.79198225     0.09100
C539        C  0.31301813  0.71606568  0.79017545    -0.13100
C540        C  0.34942554  0.71954892  0.81545049    -0.13100
C541        C  0.35901068  0.75343483  0.84236214     0.09100
C542        C  0.33053745  0.78352805  0.84448070    -0.13100
H543        H  0.27273729  0.80390994  0.82206502     0.13100
H544        H  0.30930768  0.68998965  0.76809942     0.13100
H545        H  0.37074089  0.69588755  0.81262867     0.13100
H546        H  0.33683220  0.81008882  0.86505795     0.13100
C547        C  0.16925631  0.73767557  0.76432637    -0.13100
C548        C  0.20583037  0.74378705  0.78974093     0.09100
C549        C  0.20435745  0.74969321  0.84188733    -0.13100
C550        C  0.16797559  0.75245727  0.86627459    -0.13100
C551        C  0.13206588  0.74792575  0.83986128     0.09100
C552        C  0.13321233  0.73951764  0.78894738    -0.13100
H553        H  0.16854183  0.73276354  0.72448130     0.13100
H554        H  0.23092199  0.75302650  0.86421730     0.13100
H555        H  0.16788180  0.75807384  0.90595756     0.13100
H556        H  0.10602633  0.73540849  0.76777995     0.13100
C557        C  0.27888428  0.79456501  0.69890800    -0.13100
C558        C  0.24518385  0.78424628  0.72653133     0.09100
C559        C  0.21491425  0.81322303  0.72841693    -0.13100
C560        C  0.21784767  0.84959473  0.70364594    -0.13100
C561        C  0.25159888  0.85961699  0.67730190     0.09100
C562        C  0.28213023  0.83160519  0.67501181    -0.13100
H563        H  0.30337595  0.77414044  0.69698452     0.13100
H564        H  0.18888779  0.80923574  0.75021119     0.13100
H565        H  0.19391638  0.87059202  0.70657098     0.13100
H566        H  0.30861374  0.83828852  0.65479280     0.13100
C567        C  0.23815978  0.66979492  0.75005162    -0.13100
C568        C  0.24391885  0.70685846  0.72627264     0.09100
C569        C  0.24859478  0.70662028  0.67387316    -0.13100
C570        C  0.25018725  0.67098547  0.64752435    -0.13100
C571        C  0.24560440  0.63458957  0.67213847     0.09100
C572        C  0.23888997  0.63442929  0.72347295    -0.13100
H573        H  0.23401552  0.66821423  0.78997192     0.13100
H574        H  0.25151636  0.73359541  0.65265150     0.13100
H575        H  0.25492499  0.67185547  0.60769092     0.13100
H576        H  0.23510659  0.60677208  0.74333474     0.13100
C577        C  0.74527342  0.24491417  0.75635204    -0.02200
C578        C  0.63779196  0.09251069  0.50187801     0.42700
N579        N  0.67174162  0.04240254  0.48189122     0.01600
C580        C  0.78886660  0.42334554  0.63985708    -0.06200
H581        H  0.82231222  0.08526029  0.62933684     0.07100
C582        C  0.85213499  0.07568439  0.45573454    -0.06600
Co583      Co  0.70085165  0.49867911  0.58471461     0.74200
N584        N  0.77836444  0.04351424  0.60382364    -0.25800
Co585      Co  0.80189875  0.50126062  0.57737005     0.74100
C586        C  0.86814822  0.09384842  0.50065201     0.42800
N587        N  0.76695238  0.04580771  0.39760578     0.01300
N588        N  0.83523651  0.04333087  0.52188901     0.01400
N589        N  0.72257246  0.42377812  0.64433005    -0.46600
H590        H  0.64968188  0.08142481  0.58598456     0.07100
N591        N  0.73961452  0.04298660  0.60694851     0.01600
N592        N  0.83070343  0.45921965  0.53554151     0.01400
C593        C  0.86645803  0.41108082  0.51320702     0.43000
N594        N  0.72822977  0.04509164  0.40015644    -0.25200
C595        C  0.65137827  0.42386128  0.56667778    -0.06100
N596        N  0.65007226  0.07152651  0.46305418    -0.46300
N597        N  0.85425834  0.43098136  0.55318492    -0.46600
C598        C  0.63702044  0.40261195  0.52358267     0.42800
N599        N  0.73552286  0.45597479  0.62159077     0.01600
N600        N  0.72352864  0.45481713  0.41443905    -0.25200
N601        N  0.67428398  0.04273491  0.53112994    -0.25700
N602        N  0.76221164  0.45633388  0.41086726     0.01300
H603        H  0.68023061  0.41256316  0.38858270     0.07200
H604        H  0.85269073  0.42291319  0.42985028     0.07200
N605        N  0.77418765  0.45646655  0.61816292    -0.25800
N606        N  0.83210148  0.04454944  0.47268626    -0.25400
N607        N  0.66742932  0.45378890  0.49824810     0.01600
C608        C  0.75669088  0.09596007  0.64479990     0.43000
C609        C  0.71368616  0.07817458  0.37834292    -0.06700
N610        N  0.82740581  0.45921236  0.48633545    -0.25400
H611        H  0.85559629  0.08394003  0.41699022     0.07200
N612        N  0.72550106  0.07355397  0.63140695    -0.46600
H613        H  0.68293482  0.08650547  0.37608091     0.07200
C614        C  0.74592822  0.40316898  0.37228314     0.42900
C615        C  0.65338707  0.07352037  0.54741251    -0.06200
Co616      Co  0.69296615  0.49784444  0.45443546     0.73800
N617        N  0.78009371  0.07826210  0.37553057    -0.46300
C618        C  0.75440957  0.40148552  0.65700208     0.43100
N619        N  0.64750265  0.42277269  0.48222784    -0.46300
Co620      Co  0.79411203  0.50110329  0.44718173     0.73900
C621        C  0.84904656  0.42969953  0.46878370    -0.06700
C622        C  0.79186043  0.07614596  0.62657662    -0.06200
N623        N  0.67025305  0.45483794  0.54747291    -0.25700
N624        N  0.85702207  0.07214189  0.54010702    -0.46500
H625        H  0.81957579  0.41477561  0.64134588     0.07100
C626        C  0.71054946  0.42213784  0.39129788    -0.06600
Cl627      Cl  0.74744909  0.49974754  0.51583857    -0.49600
C628        C  0.74822564  0.10041114  0.36235935     0.42900
H629        H  0.64848546  0.41691495  0.60589953     0.07100
N630        N  0.77676071  0.42618247  0.38578625    -0.46300
N631        N  0.50107923  0.30884241  0.48190899    -0.36300
N632        N  0.55941994  0.24714716  0.50234059    -0.56900
N633        N  0.49674247  0.18976526  0.50296200    -0.36300
N634        N  0.94215456  0.25387094  0.47588007    -0.56900
C635        C  0.53448331  0.32865172  0.47193800     0.27300
C636        C  0.97142240  0.33555105  0.49027281     0.27300
C637        C  0.52860788  0.16584067  0.50722266     0.27300
C638        C  0.97000085  0.17103308  0.48272806     0.27300
C639        C  0.58331526  0.27875605  0.50418314     0.35900
C640        C  0.58017422  0.21654602  0.52202419     0.35900
C641        C  0.91857021  0.28589825  0.47597460     0.35900
C642        C  0.91799917  0.22254527  0.47277182     0.35900
C643        C  0.52493211  0.36469913  0.44966921    -0.21600
C644        C  0.98597133  0.37337073  0.48485999    -0.21600
C645        C  0.51785184  0.12770293  0.49495946    -0.21600
C646        C  0.98450524  0.13401347  0.47193989    -0.21600
C647        C  0.61985108  0.26805832  0.52429232    -0.22700
C648        C  0.61778387  0.22859917  0.53587565    -0.22700
C649        C  0.87931592  0.27495341  0.47166202    -0.22700
C650        C  0.87895852  0.23465081  0.46963051    -0.22700
C651        C  0.57312609  0.31663113  0.48574395    -0.18000
C652        C  0.93189851  0.32488887  0.48017634    -0.18000
C653        C  0.93075249  0.18316866  0.47291076    -0.18000
C654        C  0.56691243  0.17727173  0.52292190    -0.18000
H655        H  0.54493494  0.38759918  0.43791248     0.14900
H656        H  0.97028758  0.39929372  0.47123427     0.14900
H657        H  0.53614881  0.10154750  0.49536939     0.14900
H658        H  0.96921154  0.11044661  0.45289904     0.14900
H659        H  0.64540953  0.28661080  0.52972522     0.13200
H660        H  0.64151413  0.21066424  0.55156293     0.13200
H661        H  0.85360676  0.29394342  0.47089526     0.13200
H662        H  0.85294421  0.21637390  0.46697312     0.13200
H663        H  0.49891401  0.28248817  0.50137291     0.26400
H664        H  0.49547357  0.21905946  0.51295954     0.26400
C665        C  0.75451960  0.25457198  0.25777900    -0.02200
N666        N  0.74984679  0.43901136  0.99843671    -0.36300
N667        N  0.68835656  0.99855183  0.95550850    -0.56900
N668        N  0.74803110  0.06054267  0.95237236    -0.36300
N669        N  0.80936711  0.00070399  0.96304829    -0.56900
C670        C  0.72013604  0.41892745  0.01949830     0.27300
C671        C  0.78285077  0.41699888  0.00423985     0.27300
C672        C  0.71533463  0.08248718  0.95864957     0.27300
C673        C  0.77935723  0.08362707  0.96290564     0.27300
C674        C  0.66646680  0.46843971  0.00404334     0.35900
C675        C  0.66487671  0.02996407  0.94572853     0.35900
C676        C  0.83132037  0.46581093  0.97270902     0.35900
C677        C  0.83216097  0.03279260  0.95647754     0.35900
C678        C  0.73427583  0.38327210  0.03846213    -0.21600
C679        C  0.77389327  0.38194665  0.02856287    -0.21600
C680        C  0.72597231  0.12036158  0.97226524    -0.21600
C681        C  0.76646386  0.12108270  0.97492597    -0.21600
C682        C  0.62718003  0.47830278  0.99525959    -0.22700
C683        C  0.62699372  0.01768705  0.93353253    -0.22700
C684        C  0.86834949  0.47645273  0.95631517    -0.22700
C685        C  0.87066701  0.02156062  0.94756161    -0.22700
C686        C  0.68019186  0.43052736  0.01840750    -0.18000
C687        C  0.82032579  0.42717915  0.98626632    -0.18000
C688        C  0.81922936  0.07214594  0.96067524    -0.18000
C689        C  0.67623674  0.06963035  0.95107296    -0.18000
H690        H  0.71765875  0.36030326  0.05674951     0.14900
H691        H  0.79367634  0.35780328  0.03802440     0.14900
H692        H  0.70660461  0.14492931  0.97960501     0.14900
H693        H  0.78433860  0.14628592  0.98473579     0.14900
H694        H  0.60164739  0.45944791  0.99765965     0.13200
H695        H  0.60151211  0.03590587  0.92455920     0.13200
H696        H  0.89316591  0.45732740  0.94930417     0.13200
H697        H  0.89575019  0.04043728  0.94119506     0.13200
H698        H  0.74729558  0.46517517  0.97841368     0.26400
H699        H  0.74887398  0.03194971  0.93955834     0.26400
C700        C  0.58993310  0.13146924  0.99188382     0.42700
N701        N  0.54257422  0.16665477  0.01752790     0.01600
C702        C  0.91769180  0.29088986  0.88978730    -0.06200
H703        H  0.58029515  0.31600564  0.86935332     0.07100
C704        C  0.57801393  0.34614504  0.04287717    -0.06600
Co705      Co  0.99696712  0.20423071  0.93902731     0.74200
N706        N  0.53881674  0.27259364  0.89592692    -0.25800
Co707      Co  0.99750207  0.30452877  0.95167060     0.74100
C708        C  0.59555243  0.36021974  0.99680266     0.42800
N709        N  0.54911814  0.26268974  0.10332527     0.01300
N710        N  0.54279611  0.32923971  0.97851328     0.01400
N711        N  0.92028969  0.22488548  0.88183520    -0.46600
H712        H  0.57351663  0.14411556  0.90942671     0.07100
N713        N  0.53780581  0.23390282  0.89267237     0.01600
N714        N  0.95641839  0.33057505  0.99786817     0.01400
C715        C  0.90678358  0.36201988  0.02480979     0.43000
N716        N  0.54899162  0.22396004  0.10032286    -0.25200
C717        C  0.92453382  0.15202936  0.95901059    -0.07300
N718        N  0.57201037  0.14372161  0.03323122    -0.46300
N719        N  0.92543950  0.35172180  0.98298626    -0.46600
C720        C  0.90660556  0.13415212  0.00249873     0.42800
N721        N  0.95198258  0.23830905  0.90584117     0.01600
N722        N  0.95977250  0.22115719  0.11259633    -0.25200
N723        N  0.53987970  0.16949628  0.96834502    -0.25700
N724        N  0.96110738  0.25962636  0.11860883     0.01300
H725        H  0.91753917  0.17705777  0.13529938     0.07200
H726        H  0.92314949  0.34805137  0.10660912     0.07200
N727        N  0.95142023  0.27683350  0.91116769    -0.25800
N728        N  0.54551382  0.32699985  0.02771551    -0.25400
N729        N  0.95711829  0.16678823  0.02641837     0.01600
C730        C  0.58993276  0.25041823  0.85296092     0.43000
C731        C  0.58239820  0.21000926  0.12246182    -0.06700
N732        N  0.95898934  0.32660938  0.04695325    -0.25400
H733        H  0.58809110  0.34937663  0.08112675     0.07200
N734        N  0.56785054  0.21942998  0.86753613    -0.46600
H735        H  0.59091567  0.17933806  0.12525383     0.07200
C736        C  0.90836091  0.24198680  0.15644664     0.42900
C737        C  0.56871725  0.14810754  0.94878841    -0.06200
Co738      Co  0.00199623  0.19265673  0.06902227     0.73800
N739        N  0.58109606  0.27633503  0.12658014    -0.46300
C740        C  0.89687564  0.25614149  0.87037890     0.43100
N741        N  0.92851326  0.14395328  0.04298565    -0.46300
Co742      Co  0.00341357  0.29349685  0.08182377     0.73900
C743        C  0.92896419  0.34597696  0.06722618    -0.06700
C744        C  0.57080679  0.28571222  0.87194670    -0.06200
N745        N  0.95551737  0.17163512  0.97742107    -0.25700
N746        N  0.57208287  0.34906857  0.95862088    -0.46500
H747        H  0.90843203  0.32139387  0.88895407     0.07100
C748        C  0.92727783  0.20734072  0.13501185    -0.06600
Cl749      Cl  0.99999255  0.24872475  0.01040006    -0.49600
C750        C  0.60385307  0.24496319  0.13985776     0.42900
H751        H  0.91633343  0.14986510  0.91995290     0.07100
N752        N  0.93114850  0.27316708  0.14460293    -0.46300
C753        C  0.87357891  0.10652900  0.00277004    -0.16100
C754        C  0.84936509  0.10329679  0.96292772    -0.31300
H755        H  0.86969100  0.08770293  0.03535589     0.12900
H756        H  0.85147848  0.12338184  0.93125911     0.13500
C757        C  0.65044098  0.40011811  0.02851178    -0.16100
C758        C  0.63024381  0.38482193  0.99012929    -0.31300
H759        H  0.64382448  0.39250642  0.06687207     0.12900
H760        H  0.63768155  0.39323429  0.95220209     0.13500
C761        C  0.87140013  0.38662453  0.02653371    -0.16100
C762        C  0.85121246  0.39662262  0.98492762    -0.31300
H763        H  0.86247164  0.39791396  0.06235365     0.12900
H764        H  0.86051531  0.38634377  0.94877246     0.13500
C765        C  0.64474007  0.09945472  0.95126933    -0.16100
C766        C  0.62326449  0.10418185  0.99200002    -0.31300
H767        H  0.63940753  0.11714416  0.91777736     0.12900
H768        H  0.63027092  0.08745628  0.02589494     0.13500
C769        C  0.86474748  0.27044383  0.22134621    -0.13100
C770        C  0.86944818  0.24509516  0.18112053     0.09100
C771        C  0.83659743  0.22360678  0.16445582    -0.13100
C772        C  0.79961094  0.22817102  0.18672483    -0.13100
C773        C  0.79404814  0.25384209  0.22743905     0.09100
C774        C  0.82838869  0.27374243  0.24501746    -0.13100
H775        H  0.88977069  0.28677444  0.23580162     0.13100
H776        H  0.83933885  0.20361669  0.13352855     0.13100
H777        H  0.77593423  0.21067984  0.17189721     0.13100
H778        H  0.82801798  0.29114527  0.27846827     0.13100
C779        C  0.65542595  0.28342242  0.18687621    -0.13100
C780        C  0.64306910  0.24764424  0.16639393     0.09100
C781        C  0.66813841  0.21489626  0.17260380    -0.13100
C782        C  0.70417148  0.21778753  0.19941447    -0.13100
C783        C  0.71691430  0.25356526  0.22153252     0.09100
C784        C  0.69102342  0.28627779  0.21420771    -0.13100
H785        H  0.63685652  0.30935040  0.18306002     0.13100
H786        H  0.65963328  0.18667373  0.15753658     0.13100
H787        H  0.72094140  0.19092670  0.20534641     0.13100
H788        H  0.69673302  0.31456509  0.23028240     0.13100
C789        C  0.76027786  0.36548240  0.29471654    -0.13100
C790        C  0.74885145  0.36542601  0.34458991     0.09100
C791        C  0.74000826  0.32914565  0.36742965    -0.13100
C792        C  0.74276793  0.29356658  0.34101575    -0.13100
C793        C  0.75318542  0.29316707  0.29004145     0.09100
C794        C  0.76185172  0.33027644  0.26782495    -0.13100
H795        H  0.76713462  0.39301609  0.27606453     0.13100
H796        H  0.73128564  0.32827327  0.40606561     0.13100
H797        H  0.73598993  0.26670743  0.36092629     0.13100
H798        H  0.76956446  0.33198796  0.22886375     0.13100
C799        C  0.71603944  0.16458872  0.33407602    -0.13100
C800        C  0.74998452  0.14103833  0.34051297     0.09100
C801        C  0.78618161  0.15675262  0.32597750    -0.13100
C802        C  0.78819056  0.19375296  0.30248461    -0.13100
C803        C  0.75387270  0.21666668  0.29208395     0.09100
C804        C  0.71804814  0.20197846  0.31106521    -0.13100
H805        H  0.68771536  0.15397930  0.34614256     0.13100
H806        H  0.81314420  0.13998090  0.33174185     0.13100
H807        H  0.81704806  0.20359260  0.29174947     0.13100
H808        H  0.69105050  0.21879018  0.30603056     0.13100
C809        C  0.90234341  0.35670224  0.47601657    -0.16100
C810        C  0.89475520  0.37863010  0.51582838    -0.31300
H811        H  0.88585011  0.36064241  0.44114650     0.12900
H812        H  0.90988719  0.37255018  0.55125519     0.13500
C813        C  0.61186160  0.12672280  0.49550416    -0.16100
C814        C  0.59629214  0.14589334  0.53361545    -0.31300
H815        H  0.60351783  0.13536777  0.45751642     0.12900
H816        H  0.60406938  0.13833380  0.57204562     0.13500
C817        C  0.60388682  0.34708505  0.48363673    -0.16100
C818        C  0.61324718  0.36683531  0.52492781    -0.31300
H819        H  0.61426380  0.35682156  0.44746492     0.12900
H820        H  0.60170838  0.35730801  0.56061687     0.13500
C821        C  0.89510439  0.12694219  0.50461257    -0.16100
C822        C  0.90091614  0.15208181  0.46674114    -0.31300
H823        H  0.91112602  0.13063688  0.53980046     0.12900
H824        H  0.88342934  0.15070045  0.43239890     0.13500
C825        C  0.79361135  0.28102719  0.81735863    -0.13100
C826        C  0.78253605  0.24586413  0.79266538     0.09100
C827        C  0.80965748  0.21397230  0.79723142    -0.13100
C828        C  0.84579110  0.21747282  0.82309094    -0.13100
C829        C  0.85716510  0.25302187  0.84513957     0.09100
C830        C  0.83031891  0.28465626  0.84261345    -0.13100
H831        H  0.77443132  0.30657279  0.81517336     0.13100
H832        H  0.80422493  0.18597014  0.77995792     0.13100
H833        H  0.86547006  0.19227153  0.82460959     0.13100
H834        H  0.83779292  0.31243233  0.85971430     0.13100
C835        C  0.67002682  0.23248225  0.75900727    -0.13100
C836        C  0.70519599  0.24363999  0.78492886     0.09100
C837        C  0.70108235  0.25603913  0.83477094    -0.13100
C838        C  0.66372193  0.25853980  0.85658357    -0.13100
C839        C  0.62944046  0.24734032  0.83018831     0.09100
C840        C  0.63310025  0.23359639  0.78153714    -0.13100
H841        H  0.67099444  0.22372184  0.72035170     0.13100
H842        H  0.72625856  0.26479339  0.85710545     0.13100
H843        H  0.66160465  0.26906344  0.89441479     0.13100
H844        H  0.60712747  0.22495755  0.76023803     0.13100
C845        C  0.78172064  0.29734531  0.70258748    -0.13100
C846        C  0.74610618  0.28383810  0.72362761     0.09100
C847        C  0.71339708  0.31005642  0.71954339    -0.13100
C848        C  0.71637723  0.34735955  0.69732607    -0.13100
C849        C  0.75213349  0.36085143  0.67863499     0.09100
C850        C  0.78473799  0.33518563  0.68081046    -0.13100
H851        H  0.80799361  0.27917262  0.70509731     0.13100
H852        H  0.68506145  0.30318249  0.73464338     0.13100
H853        H  0.69054233  0.36621903  0.69604116     0.13100
H854        H  0.81277806  0.34445026  0.66625414     0.13100
C855        C  0.73476835  0.17008779  0.74499422    -0.13100
C856        C  0.74718041  0.20654424  0.72408774     0.09100
C857        C  0.76326986  0.20520159  0.67576723    -0.13100
C858        C  0.76728621  0.16927286  0.65049017    -0.13100
C859        C  0.75390343  0.13385317  0.67163885     0.09100
C860        C  0.73706111  0.13478677  0.71872838    -0.13100
H861        H  0.72346052  0.16875446  0.78243008     0.13100
H862        H  0.77341916  0.23142970  0.65713424     0.13100
H863        H  0.78022931  0.16925655  0.61389257     0.13100
H864        H  0.72667552  0.10783933  0.73596447     0.13100
C865        C  0.74328524  0.75108529  0.75794785    -0.02200
C866        C  0.62831566  0.58807385  0.51838625     0.42700
N867        N  0.66381229  0.53970200  0.49628903     0.01600
C868        C  0.79303051  0.92223117  0.62672344    -0.06200
H869        H  0.81429772  0.58849923  0.63949113     0.07100
C870        C  0.84592296  0.57548972  0.46778221    -0.06600
Co871      Co  0.70682142  0.99964802  0.57036211     0.74200
N872        N  0.77134990  0.54488641  0.61655856    -0.25800
Co873      Co  0.80807456  0.99985657  0.56375017     0.74100
C874        C  0.86260928  0.59401521  0.51230021     0.42800
N875        N  0.75940792  0.54381228  0.41041824     0.01300
N876        N  0.82839345  0.54450223  0.53459644     0.01400
N877        N  0.72672168  0.92462398  0.63120493    -0.46600
H878        H  0.64233417  0.57690267  0.60171479     0.07100
N879        N  0.73265848  0.54350335  0.62005001     0.01600
N880        N  0.83608085  0.95777140  0.52099082     0.01400
C881        C  0.86984738  0.90859163  0.49724663     0.43000
N882        N  0.72065615  0.54329935  0.41345017    -0.25200
C883        C  0.65527477  0.92615910  0.54972824    -0.06100
N884        N  0.64028562  0.56790727  0.47849768    -0.46300
N885        N  0.85785786  0.92786047  0.53788498    -0.46600
C886        C  0.63944422  0.90700563  0.50541600     0.42800
N887        N  0.74048491  0.95577071  0.60696037     0.01600
N888        N  0.72977395  0.95696705  0.40065867    -0.25200
N889        N  0.66731752  0.54009266  0.54545723    -0.25700
N890        N  0.76841878  0.95811128  0.39665264     0.01300
H891        H  0.68609651  0.91407359  0.37798415     0.07200
H892        H  0.85726621  0.92302990  0.41421863     0.07200
N893        N  0.77920244  0.95523905  0.60375037    -0.25800
N894        N  0.82520813  0.54492496  0.48537423    -0.25400
N895        N  0.67276992  0.95694940  0.48267581     0.01600
C896        C  0.74856689  0.59805046  0.65521109     0.43000
C897        C  0.70624173  0.57615844  0.39049257    -0.06700
N898        N  0.83339262  0.95910726  0.47175926    -0.25400
H899        H  0.84991964  0.58283722  0.42885166     0.07200
N900        N  0.71788041  0.57456037  0.64299077    -0.46600
H901        H  0.67552106  0.58464408  0.38791853     0.07200
C902        C  0.75146194  0.90393414  0.36127153     0.42900
C903        C  0.64578628  0.56973869  0.56286036    -0.06200
Co904      Co  0.69987843  0.00023897  0.44025649     0.73800
N905        N  0.77257951  0.57533759  0.38643122    -0.46300
C906        C  0.75797602  0.90182673  0.64489587     0.43100
N907        N  0.65091483  0.92782078  0.46528294    -0.46300
Co908      Co  0.80088150  0.00200481  0.43350242     0.73900
C909        C  0.85403568  0.92926475  0.45336353    -0.06700
C910        C  0.78411309  0.57846027  0.63772190    -0.06200
N911        N  0.67552310  0.95680290  0.53189334    -0.25700
N912        N  0.85102198  0.57298186  0.55211703    -0.46500
H913        H  0.82360959  0.91325115  0.62946570     0.07100
C914        C  0.71640387  0.92374504  0.37942760    -0.06600
Cl915      Cl  0.75394083  0.00042565  0.50201697    -0.49600
C916        C  0.74096095  0.59751082  0.37255314     0.42900
H917        H  0.65161285  0.91881937  0.58871484     0.07100
N918        N  0.78260843  0.92699479  0.37322392    -0.46300
N919        N  0.50706781  0.81110114  0.50572951    -0.36300
N920        N  0.56079828  0.75001973  0.54385860    -0.56900
N921        N  0.50211599  0.69160214  0.51390986    -0.36300
N922        N  0.94145825  0.75183652  0.47079055    -0.56900
C923        C  0.53551090  0.83268528  0.52823635     0.27300
C924        C  0.97412830  0.83141007  0.45249640     0.27300
C925        C  0.52857294  0.66914220  0.53969352     0.27300
C926        C  0.96725579  0.66906810  0.48522771     0.27300
C927        C  0.58601420  0.78060546  0.54368516     0.35900
C928        C  0.58324035  0.71729903  0.54853834     0.35900
C929        C  0.91955878  0.78501120  0.47079555     0.35900
C930        C  0.91650114  0.72185993  0.47949976     0.35900
C931        C  0.52156896  0.87031226  0.53675696    -0.21600
C932        C  0.98788429  0.86567379  0.43036437    -0.21600
C933        C  0.51204992  0.63305749  0.55130323    -0.21600
C934        C  0.97940481  0.63055583  0.47822165    -0.21600
C935        C  0.62455485  0.76742560  0.54965076    -0.22700
C936        C  0.62279844  0.72712662  0.55271985    -0.22700
C937        C  0.88033533  0.77606615  0.47889523    -0.22700
C938        C  0.87836885  0.73586093  0.48413966    -0.22700
C939        C  0.57456680  0.82024993  0.53852690    -0.18000
C940        C  0.93411072  0.82287520  0.46009750    -0.18000
C941        C  0.92762232  0.68196850  0.48148090    -0.18000
C942        C  0.56845140  0.67870194  0.54875701    -0.18000
H943        H  0.53745650  0.89455275  0.55351293     0.14900
H944        H  0.97059075  0.88962060  0.41414927     0.14900
H945        H  0.52608044  0.60844836  0.57073857     0.14900
H946        H  0.96144705  0.60562308  0.46761458     0.14900
H947        H  0.65113723  0.78494301  0.55106642     0.13200
H948        H  0.64778615  0.70736460  0.55693531     0.13200
H949        H  0.85563753  0.79627607  0.48003267     0.13200
H950        H  0.85198813  0.71891180  0.49074749     0.13200
H951        H  0.51047945  0.78290350  0.49213534     0.26400
H952        H  0.50780969  0.71862461  0.49734529     0.26400
C953        C  0.75433506  0.74955816  0.26081937    -0.02200
N954        N  0.74970349  0.93869106  0.95852723    -0.36300
N955        N  0.68937639  0.50053380  0.99833193    -0.56900
N956        N  0.74760547  0.55886341  0.97024688    -0.36300
N957        N  0.80878810  0.49818432  0.97857190    -0.56900
C958        C  0.71792575  0.91572974  0.96646438     0.27300
C959        C  0.78217013  0.91675386  0.96883250     0.27300
C960        C  0.71607206  0.58232526  0.97726765     0.27300
C961        C  0.77997519  0.58176113  0.97340837     0.27300
C962        C  0.66571258  0.96632175  0.94908719     0.35900
C963        C  0.66491146  0.53042613  0.98473510     0.35900
C964        C  0.83308210  0.96910510  0.95767922     0.35900
C965        C  0.83110633  0.52926204  0.96547124     0.35900
C966        C  0.73039173  0.87829862  0.98105879    -0.21600
C967        C  0.77097980  0.87892358  0.98247823    -0.21600
C968        C  0.72835196  0.62086865  0.98363750    -0.21600
C969        C  0.76878229  0.62048535  0.98150603    -0.21600
C970        C  0.62750467  0.97735395  0.93573813    -0.22700
C971        C  0.62628020  0.51737539  0.98233308    -0.22700
C972        C  0.87127159  0.98121208  0.94840105    -0.22700
C973        C  0.86828598  0.51670990  0.95208446    -0.22700
C974        C  0.67814518  0.92720673  0.95870111    -0.18000
C975        C  0.82151911  0.92947709  0.96399938    -0.18000
C976        C  0.81921983  0.56900725  0.96784927    -0.18000
C977        C  0.67652251  0.56994657  0.97762733    -0.18000
H978        H  0.71220885  0.85301418  0.98929155     0.14900
H979        H  0.79002786  0.85422713  0.99212795     0.14900
H980        H  0.71014081  0.64650324  0.98990826     0.14900
H981        H  0.78774708  0.64586892  0.98547846     0.14900
H982        H  0.60248094  0.95836108  0.92882043     0.13200
H983        H  0.60002953  0.53426788  0.97277965     0.13200
H984        H  0.89698118  0.96289652  0.94306792     0.13200
H985        H  0.89283781  0.53469510  0.94059599     0.13200
H986        H  0.74944875  0.96718331  0.94454924     0.26400
H987        H  0.74679638  0.52918996  0.96181284     0.26400
C988        C  0.58882373  0.63455356  0.00855949     0.42700
N989        N  0.54012653  0.66972856  0.03036627     0.01600
C990        C  0.91945447  0.79102486  0.88441098    -0.06200
H991        H  0.58092633  0.82051363  0.88024640     0.07100
C992        C  0.57771694  0.84930637  0.05580433    -0.06600
Co993      Co  0.99618258  0.70333162  0.93832406     0.74200
N994        N  0.54060408  0.77637488  0.90777878    -0.25800
Co995      Co  0.99805022  0.80429199  0.94649286     0.74100
C996        C  0.59622359  0.86344591  0.01048031     0.42800
N997        N  0.54595306  0.76554668  0.11554205     0.01300
N998        N  0.54322863  0.83305886  0.99043739     0.01400
N999        N  0.91949706  0.72472074  0.87971577    -0.46600
H1000       H  0.57656827  0.64737599  0.92502033     0.07100
N1001       N  0.54043520  0.73759710  0.90519929     0.01600
N1002       N  0.95600402  0.83221074  0.98950940     0.01400
C1003       C  0.90535707  0.86439228  0.01210183     0.43000
N1004       N  0.54455787  0.72682021  0.11280112    -0.25200
C1005       C  0.92373507  0.65091929  0.95919173    -0.07300
N1006       N  0.56875669  0.64676612  0.04823788    -0.46300
N1007       N  0.92569640  0.85311637  0.97205582    -0.46600
C1008       C  0.90614464  0.63359721  0.00334634     0.42800
N1009       N  0.95188214  0.73758361  0.90285954     0.01600
N1010       N  0.95643984  0.72508131  0.10928244    -0.25200
N1011       N  0.53986561  0.67270276  0.98115821    -0.25700
N1012       N  0.95675099  0.76378353  0.11323135     0.01300
H1013       H  0.91547370  0.68050217  0.13391617     0.07200
H1014       H  0.91847974  0.85201222  0.09525643     0.07200
N1015       N  0.95259868  0.77626642  0.90624499    -0.25800
N1016       N  0.54520901  0.83051638  0.03968028    -0.25400
N1017       N  0.95540012  0.66835653  0.02618644     0.01600
C1018       C  0.59234254  0.75494542  0.86543854     0.43000
C1019       C  0.57701763  0.71178268  0.13595911    -0.06700
N1020       N  0.95668066  0.82929522  0.03872567    -0.25400
H1021       H  0.58733993  0.85230720  0.09427561     0.07200
N1022       N  0.57085761  0.72355332  0.88030152    -0.46600
H1023       H  0.58453144  0.68086443  0.13884986     0.07200
C1024       C  0.90410039  0.74571096  0.15087853     0.42900
C1025       C  0.56974930  0.65130369  0.96387000    -0.06200
Co1026     Co  0.99943354  0.69562211  0.06836814     0.73800
N1027       N  0.57810550  0.77813217  0.13947687    -0.46300
C1028       C  0.89730881  0.75670854  0.86699954     0.43100
N1029       N  0.92739612  0.64519709  0.04348333    -0.46300
Co1030     Co  0.00012907  0.79697321  0.07674169     0.73900
C1031       C  0.92582719  0.84911868  0.05641590    -0.06700
C1032       C  0.57231703  0.78998875  0.88362192    -0.06200
N1033       N  0.95405523  0.67187418  0.97703896    -0.25700
N1034       N  0.57318100  0.85262421  0.97151744    -0.46500
H1035       H  0.91124152  0.82179951  0.88238750     0.07100
C1036       C  0.92424019  0.71104828  0.13193843    -0.06600
Cl1037     Cl  0.99844257  0.75006237  0.00750634    -0.49600
C1038       C  0.59948258  0.74594321  0.15351834     0.42900
H1039       H  0.91607418  0.64721380  0.92017795     0.07100
N1040       N  0.92603516  0.77733425  0.13798327    -0.46300
C1041       C  0.87412957  0.60496759  0.00517378    -0.16100
C1042       C  0.85010714  0.59928645  0.96574263    -0.31300
H1043       H  0.87018513  0.58806381  0.03939773     0.12900
H1044       H  0.85215138  0.61735622  0.93220442     0.13500
C1045       C  0.64698563  0.89703854  0.96229669    -0.16100
C1046       C  0.63223157  0.88711166  0.00671132    -0.31300
H1047       H  0.63297759  0.88700128  0.92794238     0.12900
H1048       H  0.64587407  0.89814180  0.04078278     0.13500
C1049       C  0.86990220  0.88910309  0.01009519    -0.16100
C1050       C  0.85312071  0.89962761  0.96631053    -0.31300
H1051       H  0.85818423  0.90001687  0.04474317     0.12900
H1052       H  0.86492114  0.88937942  0.93138873     0.13500
C1053       C  0.64548205  0.60050801  0.97380836    -0.16100
C1054       C  0.62158820  0.60657694  0.01201768    -0.31300
H1055       H  0.64320507  0.61854154  0.94011306     0.12900
H1056       H  0.62604462  0.59013388  0.04674489     0.13500
C1057       C  0.86548911  0.75495516  0.22835522    -0.13100
C1058       C  0.86595824  0.74711729  0.17730381     0.09100
C1059       C  0.82993381  0.73980512  0.15225017    -0.13100
C1060       C  0.79394637  0.74087197  0.17771623    -0.13100
C1061       C  0.79309809  0.74794191  0.22961423     0.09100
C1062       C  0.82995583  0.75489511  0.25409353    -0.13100
H1063       H  0.89281923  0.76045431  0.24865140     0.13100
H1064       H  0.82960344  0.73367767  0.11268932     0.13100
H1065       H  0.76714194  0.73582191  0.15639380     0.13100
H1066       H  0.83113208  0.76028906  0.29383648     0.13100
C1067       C  0.65388606  0.78228513  0.19803780    -0.13100
C1068       C  0.63962006  0.74709392  0.17784567     0.09100
C1069       C  0.66427144  0.71369177  0.18071175    -0.13100
C1070       C  0.70183131  0.71537765  0.20410680    -0.13100
C1071       C  0.71578286  0.75021699  0.22699326     0.09100
C1072       C  0.69087785  0.78386051  0.22226696    -0.13100
H1073       H  0.63595949  0.80874482  0.19608359     0.13100
H1074       H  0.65456017  0.68609773  0.16495237     0.13100
H1075       H  0.71951513  0.68877444  0.20609279     0.13100
H1076       H  0.69899755  0.81187868  0.23787560     0.13100
C1077       C  0.77249487  0.85993666  0.29269841    -0.13100
C1078       C  0.75396444  0.86441367  0.33828930     0.09100
C1079       C  0.73682961  0.83119738  0.36068416    -0.13100
C1080       C  0.73863691  0.79396480  0.33811551    -0.13100
C1081       C  0.75634186  0.78900766  0.29121486     0.09100
C1082       C  0.77249730  0.82346889  0.26886808    -0.13100
H1083       H  0.78543050  0.88518690  0.27424817     0.13100
H1084       H  0.72223544  0.83400129  0.39602420     0.13100
H1085       H  0.72532700  0.76970268  0.35757406     0.13100
H1086       H  0.78464002  0.82264178  0.23190215     0.13100
C1087       C  0.71295818  0.66434648  0.34503193    -0.13100
C1088       C  0.74391200  0.63669527  0.34661384     0.09100
C1089       C  0.77892056  0.64669091  0.32291813    -0.13100
C1090       C  0.78289965  0.68261674  0.29738618    -0.13100
C1091       C  0.75231293  0.71138557  0.29528497     0.09100
C1092       C  0.71710590  0.70094211  0.32000585    -0.13100
H1093       H  0.68539451  0.65764342  0.36283097     0.13100
H1094       H  0.80332152  0.62602305  0.32285214     0.13100
H1095       H  0.81021292  0.68628124  0.27823733     0.13100
H1096       H  0.69182702  0.72048063  0.31806671     0.13100
C1097       C  0.90616290  0.85596951  0.45703130    -0.16100
C1098       C  0.89462331  0.87328561  0.49886189    -0.31300
H1099       H  0.89772845  0.86753601  0.42042707     0.12900
H1100       H  0.90439210  0.86168500  0.53504509     0.13500
C1101       C  0.60116726  0.62139839  0.51557456    -0.16100
C1102       C  0.59670755  0.64580154  0.55392477    -0.31300
H1103       H  0.58464052  0.62640933  0.48086947     0.12900
H1104       H  0.61494521  0.64308075  0.58758542     0.13500
C1105       C  0.60514375  0.85085510  0.54242607    -0.16100
C1106       C  0.61216352  0.87395300  0.50282270    -0.31300
H1107       H  0.62187690  0.85383346  0.57715127     0.12900
H1108       H  0.59671713  0.86881967  0.46756525     0.13500
C1109       C  0.89142833  0.62589975  0.51550711    -0.16100
C1110       C  0.89614595  0.65196095  0.47832760    -0.31300
H1111       H  0.90948518  0.62798144  0.54934607     0.12900
H1112       H  0.87643530  0.65201788  0.44585459     0.13500
C1113       C  0.79341668  0.78466440  0.81872691    -0.13100
C1114       C  0.78182751  0.75073797  0.79186086     0.09100
C1115       C  0.80927862  0.71898901  0.79226776    -0.13100
C1116       C  0.84567306  0.72101751  0.81759009    -0.13100
C1117       C  0.85731844  0.75513514  0.84249281     0.09100
C1118       C  0.83062065  0.78697931  0.84314402    -0.13100
H1119       H  0.77406373  0.81008048  0.81931330     0.13100
H1120       H  0.80409853  0.69230930  0.77187763     0.13100
H1121       H  0.86546160  0.69596554  0.81617502     0.13100
H1122       H  0.83848217  0.81377072  0.86238101     0.13100
C1123       C  0.66751716  0.74679965  0.76289153    -0.13100
C1124       C  0.70420768  0.75179679  0.78849557     0.09100
C1125       C  0.70293015  0.75609630  0.84090949    -0.13100
C1126       C  0.66669911  0.75720906  0.86578166    -0.13100
C1127       C  0.63071267  0.75297191  0.83948272     0.09100
C1128       C  0.63157171  0.74744492  0.78787131    -0.13100
H1129       H  0.66675338  0.74305117  0.72281360     0.13100
H1130       H  0.72960562  0.75878238  0.86321327     0.13100
H1131       H  0.66678509  0.76118862  0.90581008     0.13100
H1132       H  0.60429281  0.74411693  0.76665041     0.13100
C1133       C  0.78038457  0.79839748  0.69770280    -0.13100
C1134       C  0.74568734  0.78937289  0.72419057     0.09100
C1135       C  0.71599492  0.81900178  0.72353674    -0.13100
C1136       C  0.72014683  0.85446678  0.69711604    -0.13100
C1137       C  0.75465576  0.86312110  0.67158595     0.09100
C1138       C  0.78488831  0.83466727  0.67214416    -0.13100
H1139       H  0.80465716  0.77759868  0.69793442     0.13100
H1140       H  0.68938566  0.81627650  0.74444808     0.13100
H1141       H  0.69641725  0.87586657  0.69800034     0.13100
H1142       H  0.81200616  0.84036154  0.65279252     0.13100
C1143       C  0.73203008  0.67620997  0.75244721    -0.13100
C1144       C  0.74150603  0.71192608  0.72733591     0.09100
C1145       C  0.75097061  0.70911197  0.67629079    -0.13100
C1146       C  0.75360318  0.67219957  0.65296907    -0.13100
C1147       C  0.74512800  0.63720551  0.67908563     0.09100
C1148       C  0.73335098  0.63974242  0.72860416    -0.13100
H1149       H  0.72477026  0.67638725  0.79158127     0.13100
H1150       H  0.75731988  0.73491330  0.65410186     0.13100
H1151       H  0.76210628  0.67098071  0.61429662     0.13100
H1152       H  0.72643889  0.61324222  0.74951167     0.13100
loop_ 
_geom_bond_atom_site_label_1 
_geom_bond_atom_site_label_2 
_geom_bond_distance 
_geom_bond_site_symmetry_2 
_ccdc_geom_bond_type 
C1          C250   1.577       .  S
C1          C260   1.578       .  S
C1          C270   1.587       .  S
C1          C280   1.581       .  S
C2           N20   1.345       .  A
C2           C39   1.460       .  S
C2          C237   1.465       .  S
N3           N20   1.322       .  A
N3           N25   1.321       .  A
N3         Co328   2.082       .  S
C4           N29   1.351       .  A
C4           C42   1.470       .  S
C4           H49   1.081       .  S
H5           C46   1.081       .  S
C6           N30   1.337       .  A
C6           C10   1.456       .  S
C6           H35   1.081       .  S
Co7          N47   2.081       .  S
Co7          N23   2.095       .  S
Co7         N313   2.082       .  S
Co7         N303   2.099       .  S
Co7         Cl51   2.460       .  S
N8           C46   1.351       .  A
N8           N15   1.319       .  A
N8         Co297   2.116   1_545  S
Co9          N29   2.110       .  S
Co9          N16   2.086       .  S
Co9         N296   2.105       .  S
Co9         N300   2.082       .  S
Co9         Cl51   2.448       .  S
C10          N48   1.342       .  A
C10         C245   1.454       .  S
N11          N18   1.318       .  A
N11          N41   1.328       .  A
N11        Co332   2.098   1_545  S
N12          N30   1.321       .  A
N12          N48   1.321       .  A
N12        Co297   2.069   1_545  S
N13          C42   1.352       .  A
N13          N23   1.326       .  A
H14          C39   1.081       .  S
N15          N36   1.328       .  A
N15        Co295   2.089   1_545  S
N16          N34   1.322       .  A
N16          N21   1.324       .  A
C17          N21   1.348       .  A
C17          C45   1.453       .  S
C17         C234   1.462       .  S
N18          C33   1.351       .  A
N18        Co328   2.114       .  S
C19          N47   1.339       .  A
C19          C22   1.456       .  S
C19          H53   1.081       .  S
C22          N43   1.348       .  A
C22         C242   1.465       .  S
N23          N29   1.319       .  A
N24          C50   1.347       .  A
N24          N26   1.319       .  A
N24         Co40   2.101       .  S
N25          C39   1.343       .  A
N25        Co295   2.088   1_545  S
N26          N54   1.332       .  A
N26         Co44   2.110       .  S
H27          C50   1.081       .  S
H28          C45   1.081       .  S
N30        Co332   2.077   1_545  S
N31          N43   1.324       .  A
N31          N47   1.321       .  A
N31         Co40   2.086       .  S
C32          N36   1.350       .  A
C32          C46   1.467       .  S
C32         C283   1.492       .  S
C33          C52   1.470       .  S
C33          H37   1.081       .  S
N34          C45   1.336       .  A
N34         Co44   2.073       .  S
C38          N54   1.354       .  A
C38          C50   1.462       .  S
C38         C214   1.491       .  S
Co40        N291   2.071       .  S
Co40        N306   2.107       .  S
Co40        Cl51   2.448       .  S
N41          C52   1.354       .  A
C42         C273   1.498       .  S
Co44        N299   2.095       .  S
Co44        N318   2.092       .  S
Co44        Cl51   2.460       .  S
C52         C224   1.501       .  S
N55          C59   1.352   1_655  A
N55         C636   1.351       .  A
N55          H87   1.031       .  S
N56          C63   1.349       .  A
N56          C64   1.349       .  A
N57          C61   1.353   1_655  A
N57         C638   1.351       .  A
N57          H88   1.035       .  S
N58          C65   1.348       .  A
N58          C66   1.346       .  A
C59          C67   1.391       .  A
C59          C75   1.421       .  A
C60         N631   1.350       .  A
C60          C76   1.408       .  A
C60          C68   1.385       .  A
C61          C69   1.391       .  A
C61          C78   1.419       .  A
C62         N633   1.351       .  A
C62          C77   1.414       .  A
C62          C70   1.388       .  A
C63          C75   1.413       .  A
C63          C71   1.387       .  A
C64          C78   1.412       .  A
C64          C72   1.387       .  A
C65          C73   1.386       .  A
C65          C76   1.405       .  A
C66          C74   1.387       .  A
C66          C77   1.405       .  A
C67          H79   1.081       .  S
C67         C644   1.370   1_455  A
C68          H80   1.082       .  S
C68         C643   1.373       .  A
C69          H81   1.081       .  S
C69         C646   1.370   1_455  A
C70          H82   1.082       .  S
C70         C645   1.370       .  A
C71          H83   1.082       .  S
C71          C72   1.376       .  A
C72          H84   1.083       .  S
C73          H85   1.082       .  S
C73          C74   1.372       .  A
C74          H86   1.083       .  S
C75         C241   1.481       .  S
C76         C233   1.472       .  S
C77         C246   1.471       .  S
C78         C238   1.483       .  S
C89         C197   1.573       .  S
C89         C207   1.582       .  S
C89         C217   1.574       .  S
C89         C227   1.581       .  S
N90          C95   1.349       .  A
N90          C94   1.351       .  A
N90         H122   1.030       .  S
N91          C99   1.348   1_565  A
N91         C386   1.349       .  A
N92          C97   1.349       .  A
N92          C96   1.348       .  A
N92         H123   1.036       .  S
N93         C101   1.350       .  A
N93         C388   1.349   1_545  A
C94         C102   1.388       .  A
C94         C110   1.415       .  A
C95         C111   1.414       .  A
C95         C103   1.389       .  A
C96         C104   1.388       .  A
C96         C113   1.407       .  A
C97         C112   1.405       .  A
C97         C105   1.387       .  A
C98         N379   1.351       .  A
C98         C110   1.414       .  A
C98         C106   1.387       .  A
C99         C113   1.408       .  A
C99         C107   1.386       .  A
C100        N381   1.350       .  A
C100        C108   1.388       .  A
C100        C111   1.415       .  A
C101        C109   1.385       .  A
C101        C112   1.409       .  A
C102        H114   1.082       .  S
C102        C103   1.377       .  A
C103        H115   1.083       .  S
C104        H116   1.083       .  S
C104        C105   1.374       .  A
C105        H117   1.083       .  S
C106        H118   1.082       .  S
C106        C395   1.370       .  A
C107        H119   1.083       .  S
C107        C394   1.370   1_545  A
C108        H120   1.082       .  S
C108        C397   1.370       .  A
C109        H121   1.082       .  S
C109        C396   1.370   1_545  A
C110        C181   1.478       .  S
C111        C186   1.473       .  S
C112        C178   1.472       .  S
C113        C189   1.467       .  S
C124        N142   1.345   1_556  A
C124        C161   1.453       .  S
C124        C190   1.456       .  S
N125        N142   1.323       .  A
N125        N147   1.322   1_554  A
N125       Co738   2.078       .  S
C126        N151   1.348       .  A
C126        C164   1.466       .  S
C126        H171   1.081       .  S
H127        C168   1.081       .  S
C128        N152   1.341       .  A
C128        C132   1.453       .  S
C128        H157   1.081       .  S
Co129       N169   2.071       .  S
Co129       N145   2.103       .  S
Co129       N723   2.081       .  S
Co129       N713   2.096       .  S
Co129      Cl173   2.452   1_556  S
N130        C168   1.349       .  A
N130        N137   1.319       .  A
N130       Co707   2.107   1_455  S
Co131       N151   2.099       .  S
Co131       N138   2.082       .  S
Co131       N706   2.104       .  S
Co131       N710   2.073       .  S
Co131      Cl173   2.448   1_556  S
C132        N170   1.349   1_554  A
C132        C182   1.467       .  S
N133        N140   1.319       .  A
N133        N163   1.327       .  A
N133       Co742   2.095       .  S
N134        N152   1.322   1_556  A
N134        N170   1.324       .  A
N134       Co707   2.090   1_455  S
N135        C164   1.355       .  A
N135        N145   1.329       .  A
H136        C161   1.081       .  S
N137        N158   1.330       .  A
N137       Co705   2.098   1_455  S
N138        N156   1.321   1_556  A
N138        N143   1.322       .  A
C139        N143   1.347   1_554  A
C139        C167   1.452       .  S
C139        C185   1.462       .  S
N140        C155   1.352       .  A
N140       Co738   2.116       .  S
C141        N169   1.334       .  A
C141        C144   1.453   1_556  S
C141        H175   1.081       .  S
C144        N165   1.347       .  A
C144        C177   1.462       .  S
N145        N151   1.318       .  A
N146        C172   1.346       .  A
N146        N148   1.320       .  A
N146       Co162   2.097       .  S
N147        C161   1.334       .  A
N147       Co705   2.071   1_455  S
N148        N176   1.330       .  A
N148       Co166   2.105       .  S
H149        C172   1.081       .  S
H150        C167   1.081       .  S
N152       Co742   2.081       .  S
N153        N165   1.325       .  A
N153        N169   1.321   1_554  A
N153       Co162   2.085       .  S
C154        N158   1.353       .  A
C154        C168   1.464       .  S
C154        C263   1.490       .  S
C155        C174   1.471       .  S
C155        H159   1.081       .  S
N156        C167   1.340       .  A
N156       Co166   2.077       .  S
C160        N176   1.354       .  A
C160        C172   1.459       .  S
C160        C194   1.487       .  S
Co162       N701   2.074       .  S
Co162       N716   2.110       .  S
Co162      Cl173   2.453       .  S
N163        C174   1.353       .  A
C164        C253   1.498       .  S
Co166       N709   2.095       .  S
Co166       N728   2.084       .  S
Co166      Cl173   2.458       .  S
C174        C204   1.501       .  S
C177        C178   1.338   1_554  D
C177        H179   1.087       .  S
C178        H180   1.086       .  S
C181        C182   1.339   1_556  D
C181        H183   1.086       .  S
C182        H184   1.087       .  S
C185        C186   1.337   1_554  D
C185        H187   1.087       .  S
C186        H188   1.087       .  S
C189        C190   1.336       .  D
C189        H191   1.086       .  S
C190        H192   1.087   1_556  S
C193        H199   1.083       .  S
C193        C194   1.397       .  A
C193        C198   1.402       .  A
C194        C195   1.405       .  A
C195        H200   1.083       .  S
C195        C196   1.411       .  A
C196        H201   1.078       .  S
C196        C197   1.416       .  A
C197        C198   1.421       .  A
C198        H202   1.083       .  S
C203        H209   1.083       .  S
C203        C204   1.401       .  A
C203        C208   1.401       .  A
C204        C205   1.408       .  A
C205        H210   1.082       .  S
C205        C206   1.414       .  A
C206        H211   1.083       .  S
C206        C207   1.420       .  A
C207        C208   1.422       .  A
C208        H212   1.076       .  S
C213        H219   1.083       .  S
C213        C214   1.399       .  A
C213        C218   1.404       .  A
C214        C215   1.406       .  A
C215        H220   1.083       .  S
C215        C216   1.411       .  A
C216        H221   1.079       .  S
C216        C217   1.416       .  A
C217        C218   1.422       .  A
C218        H222   1.083       .  S
C223        H229   1.082       .  S
C223        C224   1.407       .  A
C223        C228   1.413       .  A
C224        C225   1.401       .  A
C225        H230   1.083       .  S
C225        C226   1.403       .  A
C226        H231   1.077       .  S
C226        C227   1.422       .  A
C227        C228   1.419       .  A
C228        H232   1.083       .  S
C233        C234   1.339       .  D
C233        H235   1.086       .  S
C234        H236   1.087       .  S
C237        C238   1.339       .  D
C237        H239   1.087       .  S
C238        H240   1.086       .  S
C241        C242   1.342       .  D
C241        H243   1.086       .  S
C242        H244   1.087       .  S
C245        C246   1.335       .  D
C245        H247   1.087       .  S
C246        H248   1.086       .  S
C249        H255   1.083       .  S
C249        C250   1.418       .  A
C249        C254   1.409       .  A
C250        C251   1.421       .  A
C251        H256   1.079       .  S
C251        C252   1.403       .  A
C252        H257   1.083       .  S
C252        C253   1.402       .  A
C253        C254   1.407       .  A
C254        H258   1.082       .  S
C259        H265   1.083       .  S
C259        C260   1.423       .  A
C259        C264   1.404       .  A
C260        C261   1.417       .  A
C261        H266   1.079       .  S
C261        C262   1.411       .  A
C262        H267   1.083       .  S
C262        C263   1.405       .  A
C263        C264   1.399       .  A
C264        H268   1.083       .  S
C269        H275   1.082       .  S
C269        C270   1.423       .  A
C269        C274   1.411       .  A
C270        C271   1.423       .  A
C271        H276   1.074       .  S
C271        C272   1.401       .  A
C272        H277   1.083       .  S
C272        C273   1.400       .  A
C273        C274   1.404       .  A
C274        H278   1.082       .  S
C279        H285   1.081       .  S
C279        C280   1.424       .  A
C279        C284   1.402       .  A
C280        C281   1.419       .  A
C281        H286   1.075       .  S
C281        C282   1.412       .  A
C282        H287   1.083       .  S
C282        C283   1.404       .  A
C283        C284   1.398       .  A
C284        H288   1.083       .  S
C289        C538   1.578       .  S
C289        C548   1.573       .  S
C289        C558   1.576       .  S
C289        C568   1.572       .  S
C290        N308   1.341       .  A
C290        C327   1.459       .  S
C290        C525   1.458       .  S
N291        N308   1.320       .  A
N291        N313   1.321       .  A
C292        N317   1.348       .  A
C292        C330   1.465       .  S
C292        H337   1.081       .  S
H293        C334   1.081       .  S
C294        N318   1.344       .  A
C294        C298   1.461       .  S
C294        H323   1.081       .  S
Co295       N335   2.074       .  S
Co295       N311   2.101       .  S
Co295      Cl339   2.464       .  S
N296        C334   1.347       .  A
N296        N303   1.319       .  A
Co297       N317   2.099       .  S
Co297       N304   2.090       .  S
Co297      Cl339   2.445       .  S
C298        N336   1.345       .  A
C298        C533   1.466       .  S
N299        N306   1.318       .  A
N299        N329   1.328       .  A
N300        N318   1.322       .  A
N300        N336   1.322       .  A
N301        C330   1.354       .  A
N301        N311   1.328       .  A
H302        C327   1.081       .  S
N303        N324   1.330       .  A
N304        N322   1.321       .  A
N304        N309   1.323       .  A
C305        N309   1.348       .  A
C305        C333   1.457       .  S
C305        C522   1.466       .  S
N306        C321   1.350       .  A
C307        N335   1.338       .  A
C307        C310   1.449       .  S
C307        H341   1.081       .  S
C310        N331   1.350       .  A
C310        C530   1.465       .  S
N311        N317   1.318       .  A
N312        C338   1.347       .  A
N312        N314   1.319       .  A
N312       Co328   2.102   1_565  S
N313        C327   1.341       .  A
N314        N342   1.329       .  A
N314       Co332   2.096       .  S
H315        C338   1.081       .  S
H316        C333   1.081       .  S
N319        N331   1.325       .  A
N319        N335   1.321       .  A
N319       Co328   2.092   1_565  S
C320        N324   1.353       .  A
C320        C334   1.462       .  S
C320        C571   1.489       .  S
C321        C340   1.466       .  S
C321        H325   1.080       .  S
N322        C333   1.341       .  A
N322       Co332   2.081       .  S
C326        N342   1.352       .  A
C326        C338   1.462       .  S
C326        C502   1.486       .  S
Co328      Cl339   2.444   1_545  S
N329        C340   1.354       .  A
C330        C561   1.494       .  S
Co332      Cl339   2.460       .  S
C340        C512   1.497       .  S
N343        C924   1.348   1_455  A
N343        C347   1.351       .  A
N343        H375   1.035       .  S
N344        C351   1.350       .  A
N344        C352   1.348       .  A
N345        C926   1.354       .  A
N345        C349   1.351   1_655  A
N345        H376   1.036       .  S
N346        C353   1.348       .  A
N346        C354   1.349       .  A
C347        C355   1.388       .  A
C347        C363   1.411       .  A
C348        N919   1.353       .  A
C348        C364   1.419       .  A
C348        C356   1.391       .  A
C349        C357   1.389       .  A
C349        C366   1.415       .  A
C350        N921   1.353       .  A
C350        C365   1.419       .  A
C350        C358   1.391       .  A
C351        C363   1.411       .  A
C351        C359   1.386       .  A
C352        C366   1.409       .  A
C352        C360   1.387       .  A
C353        C361   1.386       .  A
C353        C364   1.410       .  A
C354        C362   1.386       .  A
C354        C365   1.411       .  A
C355        H367   1.082       .  S
C355        C932   1.374   1_455  A
C356        H368   1.081       .  S
C356        C931   1.371       .  A
C357        H369   1.081       .  S
C357        C934   1.371   1_455  A
C358        H370   1.080       .  S
C358        C933   1.371       .  A
C359        H371   1.082       .  S
C359        C360   1.375       .  A
C360        H372   1.083       .  S
C361        H373   1.082       .  S
C361        C362   1.377       .  A
C362        H374   1.082       .  S
C363        C529   1.478       .  S
C364        C521   1.482       .  S
C365        C534   1.483       .  S
C366        C526   1.473       .  S
C377        C485   1.572       .  S
C377        C495   1.576       .  S
C377        C505   1.571       .  S
C377        C515   1.580       .  S
N378        C383   1.350       .  A
N378        C382   1.352       .  A
N378        H410   1.036       .  S
N379        C387   1.350       .  A
N380        C385   1.352       .  A
N380        C384   1.350       .  A
N380        H411   1.034       .  S
N381        C389   1.351       .  A
C382        C390   1.387       .  A
C382        C398   1.413       .  A
C383        C399   1.411       .  A
C383        C391   1.386       .  A
C384        C392   1.388       .  A
C384        C401   1.412       .  A
C385        C400   1.412       .  A
C385        C393   1.387       .  A
C386        C398   1.409       .  A
C386        C394   1.387       .  A
C387        C401   1.412       .  A
C387        C395   1.387       .  A
C388        C396   1.387       .  A
C388        C399   1.411       .  A
C389        C397   1.386       .  A
C389        C400   1.413       .  A
C390        H402   1.082   1_556  S
C390        C391   1.378       .  A
C391        H403   1.082   1_556  S
C392        H404   1.082       .  S
C392        C393   1.376       .  A
C393        H405   1.082       .  S
C394        H406   1.082       .  S
C395        H407   1.082       .  S
C396        H408   1.082       .  S
C397        H409   1.082       .  S
C398        C469   1.478       .  S
C399        C474   1.476       .  S
C400        C466   1.480       .  S
C401        C477   1.473       .  S
C412        N430   1.346       .  A
C412        C449   1.457   1_554  S
C412        C478   1.464       .  S
N413        N430   1.323       .  A
N413        N435   1.321   1_554  A
N413      Co1026   2.078   1_455  S
C414        N439   1.350       .  A
C414        C452   1.470       .  S
C414        H459   1.081       .  S
H415        C456   1.081       .  S
C416        N440   1.342       .  A
C416        C420   1.456       .  S
C416        H445   1.081       .  S
Co417      N1011   2.082       .  S
Co417      N1001   2.104       .  S
Co417       N457   2.083       .  S
Co417       N433   2.098       .  S
Co417      Cl461   2.458   1_556  S
N418        C456   1.350       .  A
N418        N425   1.319       .  A
N418       Co995   2.113   1_455  S
Co419       N994   2.106       .  S
Co419       N998   2.086       .  S
Co419       N439   2.111       .  S
Co419       N426   2.087       .  S
Co419      Cl461   2.447   1_556  S
C420        N458   1.347   1_554  A
C420        C470   1.469       .  S
N421        N428   1.319       .  A
N421        N451   1.326       .  A
N421      Co1030   2.092       .  S
N422        N440   1.322   1_556  A
N422        N458   1.323       .  A
N422       Co995   2.079   1_455  S
N423        C452   1.353       .  A
N423        N433   1.328       .  A
H424        C449   1.081       .  S
N425        N446   1.330       .  A
N425       Co993   2.095   1_455  S
N426        N444   1.321   1_556  A
N426        N431   1.323       .  A
C427        N431   1.349   1_554  A
C427        C455   1.451       .  S
C427        C473   1.463       .  S
N428        C443   1.349       .  A
N428      Co1026   2.103   1_455  S
C429        N457   1.339       .  A
C429        C432   1.457   1_556  S
C429        H463   1.081       .  S
C432        N453   1.349       .  A
C432        C465   1.470       .  S
N433        N439   1.319       .  A
N434        C460   1.346       .  A
N434        N436   1.321       .  A
N434       Co450   2.101       .  S
N435        C449   1.337       .  A
N435       Co993   2.081   1_455  S
N436        N464   1.330       .  A
N436       Co454   2.104       .  S
H437        C460   1.081       .  S
H438        C455   1.081       .  S
N440      Co1030   2.091       .  S
N441        N453   1.325       .  A
N441        N457   1.321   1_554  A
N441       Co450   2.088       .  S
C442        N446   1.351       .  A
C442        C456   1.466       .  S
C442        C551   1.491       .  S
C443        C462   1.466       .  S
C443        H447   1.081       .  S
N444        C455   1.340       .  A
N444       Co454   2.077       .  S
C448        N464   1.353       .  A
C448        C460   1.461       .  S
C448        C482   1.486       .  S
Co450       N989   2.075       .  S
Co450      N1004   2.108       .  S
Co450      Cl461   2.451       .  S
N451        C462   1.352       .  A
C452        C541   1.498       .  S
Co454       N997   2.099       .  S
Co454      N1016   2.087       .  S
Co454      Cl461   2.466       .  S
C462        C492   1.492       .  S
C465        C466   1.341   1_554  D
C465        H467   1.087       .  S
C466        H468   1.086       .  S
C469        C470   1.340   1_556  D
C469        H471   1.087       .  S
C470        H472   1.087       .  S
C473        C474   1.338   1_554  D
C473        H475   1.087       .  S
C474        H476   1.087       .  S
C477        C478   1.337   1_556  D
C477        H479   1.085       .  S
C478        H480   1.087       .  S
C481        H487   1.083       .  S
C481        C482   1.398       .  A
C481        C486   1.402       .  A
C482        C483   1.405       .  A
C483        H488   1.083       .  S
C483        C484   1.409       .  A
C484        H489   1.078       .  S
C484        C485   1.415       .  A
C485        C486   1.422       .  A
C486        H490   1.083       .  S
C491        H497   1.083       .  S
C491        C492   1.399       .  A
C491        C496   1.398       .  A
C492        C493   1.406       .  A
C493        H498   1.082       .  S
C493        C494   1.410       .  A
C494        H499   1.083       .  S
C494        C495   1.419       .  A
C495        C496   1.422       .  A
C496        H500   1.077       .  S
C501        H507   1.083       .  S
C501        C502   1.397       .  A
C501        C506   1.400       .  A
C502        C503   1.406       .  A
C503        H508   1.083       .  S
C503        C504   1.411       .  A
C504        H509   1.078       .  S
C504        C505   1.416       .  A
C505        C506   1.421       .  A
C506        H510   1.083       .  S
C511        H517   1.083       .  S
C511        C512   1.408       .  A
C511        C516   1.413       .  A
C512        C513   1.398       .  A
C513        H518   1.083       .  S
C513        C514   1.399       .  A
C514        H519   1.076       .  S
C514        C515   1.422       .  A
C515        C516   1.420       .  A
C516        H520   1.083       .  S
C521        C522   1.342       .  D
C521        H523   1.085       .  S
C522        H524   1.087       .  S
C525        C526   1.334       .  D
C525        H527   1.088       .  S
C526        H528   1.085       .  S
C529        C530   1.338       .  D
C529        H531   1.087       .  S
C530        H532   1.087       .  S
C533        C534   1.339       .  D
C533        H535   1.087       .  S
C534        H536   1.086       .  S
C537        H543   1.083       .  S
C537        C538   1.419       .  A
C537        C542   1.411       .  A
C538        C539   1.422       .  A
C539        H544   1.077       .  S
C539        C540   1.402       .  A
C540        H545   1.083       .  S
C540        C541   1.401       .  A
C541        C542   1.406       .  A
C542        H546   1.083       .  S
C547        H553   1.083       .  S
C547        C548   1.420       .  A
C547        C552   1.403       .  A
C548        C549   1.417       .  A
C549        H554   1.079       .  S
C549        C550   1.412       .  A
C550        H555   1.083       .  S
C550        C551   1.406       .  A
C551        C552   1.399       .  A
C552        H556   1.083       .  S
C557        H563   1.083       .  S
C557        C558   1.418       .  A
C557        C562   1.410       .  A
C558        C559   1.422       .  A
C559        H564   1.077       .  S
C559        C560   1.400       .  A
C560        H565   1.083       .  S
C560        C561   1.399       .  A
C561        C562   1.407       .  A
C562        H566   1.082       .  S
C567        H573   1.083       .  S
C567        C568   1.420       .  A
C567        C572   1.404       .  A
C568        C569   1.417       .  A
C569        H574   1.078       .  S
C569        C570   1.410       .  A
C570        H575   1.083       .  S
C570        C571   1.404       .  A
C571        C572   1.399       .  A
C572        H576   1.083       .  S
C577        C826   1.580       .  S
C577        C836   1.575       .  S
C577        C846   1.578       .  S
C577        C856   1.574       .  S
C578        N596   1.341       .  A
C578        C615   1.462       .  S
C578        C813   1.461       .  S
N579        N596   1.319       .  A
N579        N601   1.321       .  A
N579       Co904   2.069       .  S
C580        N605   1.349       .  A
C580        C618   1.466       .  S
C580        H625   1.081       .  S
H581        C622   1.081       .  S
C582        N606   1.339       .  A
C582        C586   1.456       .  S
C582        H611   1.081       .  S
Co583       N889   2.069       .  S
Co583       N879   2.094       .  S
Co583       N623   2.072       .  S
Co583       N599   2.090       .  S
Co583      Cl627   2.456       .  S
N584        C622   1.348       .  A
N584        N591   1.319       .  A
N584       Co873   2.107   1_545  S
Co585       N872   2.108       .  S
Co585       N876   2.071       .  S
Co585       N605   2.099       .  S
Co585       N592   2.080       .  S
Co585      Cl627   2.452       .  S
C586        N624   1.343       .  A
C586        C821   1.455       .  S
N587        N594   1.317       .  A
N587        N617   1.327       .  A
N587       Co908   2.090       .  S
N588        N606   1.321       .  A
N588        N624   1.321       .  A
N588       Co873   2.074   1_545  S
N589        C618   1.352       .  A
N589        N599   1.326       .  A
H590        C615   1.081       .  S
N591        N612   1.328       .  A
N591       Co871   2.090   1_545  S
N592        N610   1.321       .  A
N592        N597   1.323       .  A
C593        N597   1.346       .  A
C593        C621   1.455       .  S
C593        C810   1.459       .  S
N594        C609   1.347       .  A
N594       Co904   2.101       .  S
C595        N623   1.337       .  A
C595        C598   1.446       .  S
C595        H629   1.081       .  S
C598        N619   1.350       .  A
C598        C818   1.461       .  S
N599        N605   1.317       .  A
N600        C626   1.349       .  A
N600        N602   1.319       .  A
N600       Co616   2.106       .  S
N601        C615   1.343       .  A
N601       Co871   2.090   1_545  S
N602        N630   1.331       .  A
N602       Co620   2.106       .  S
H603        C626   1.081       .  S
H604        C621   1.081       .  S
N606       Co908   2.077       .  S
N607        N619   1.325       .  A
N607        N623   1.322       .  A
N607       Co616   2.092       .  S
C608        N612   1.351       .  A
C608        C622   1.464       .  S
C608        C859   1.486       .  S
C609        C628   1.465       .  S
C609        H613   1.080       .  S
N610        C621   1.336       .  A
N610       Co620   2.074       .  S
C614        N630   1.354       .  A
C614        C626   1.464       .  S
C614        C790   1.493       .  S
Co616       N867   2.082       .  S
Co616       N882   2.118       .  S
Co616      Cl627   2.451       .  S
N617        C628   1.353       .  A
C618        C849   1.493       .  S
Co620       N875   2.089       .  S
Co620       N894   2.093       .  S
Co620      Cl627   2.453       .  S
C628        C800   1.494       .  S
N631        C635   1.350       .  A
N631        H663   1.034       .  S
N632        C639   1.348       .  A
N632        C640   1.349       .  A
N633        C637   1.352       .  A
N633        H664   1.034       .  S
N634        C641   1.348       .  A
N634        C642   1.347       .  A
C635        C643   1.389       .  A
C635        C651   1.412       .  A
C636        C652   1.412       .  A
C636        C644   1.384       .  A
C637        C645   1.388       .  A
C637        C654   1.415       .  A
C638        C653   1.411       .  A
C638        C646   1.384       .  A
C639        C651   1.411       .  A
C639        C647   1.387       .  A
C640        C654   1.409       .  A
C640        C648   1.386       .  A
C641        C649   1.387       .  A
C641        C652   1.406       .  A
C642        C650   1.386       .  A
C642        C653   1.404       .  A
C643        H655   1.082       .  S
C644        H656   1.082       .  S
C645        H657   1.082       .  S
C646        H658   1.083       .  S
C647        H659   1.082       .  S
C647        C648   1.374       .  A
C648        H660   1.083       .  S
C649        H661   1.083       .  S
C649        C650   1.370       .  A
C650        H662   1.082       .  S
C651        C817   1.473       .  S
C652        C809   1.473       .  S
C653        C822   1.474       .  S
C654        C814   1.478       .  S
C665        C773   1.583       .  S
C665        C783   1.588       .  S
C665        C793   1.580       .  S
C665        C803   1.573       .  S
N666        C671   1.349   1_556  A
N666        C670   1.349   1_556  A
N666        H698   1.035       .  S
N667        C962   1.350       .  A
N667        C675   1.349   1_565  A
N668        C673   1.350       .  A
N668        C672   1.349       .  A
N668        H699   1.034       .  S
N669        C964   1.350   1_545  A
N669        C677   1.350       .  A
C670        C678   1.387       .  A
C670        C686   1.410       .  A
C671        C687   1.412   1_554  A
C671        C679   1.388       .  A
C672        C680   1.388       .  A
C672        C689   1.410       .  A
C673        C688   1.409       .  A
C673        C681   1.387       .  A
C674        N955   1.350   1_554  A
C674        C686   1.414       .  A
C674        C682   1.388   1_554  A
C675        C689   1.410       .  A
C675        C683   1.387       .  A
C676        N957   1.349       .  A
C676        C684   1.387       .  A
C676        C687   1.410       .  A
C677        C685   1.386       .  A
C677        C688   1.411       .  A
C678        H690   1.083       .  S
C678        C679   1.376       .  A
C679        H691   1.082       .  S
C680        H692   1.083       .  S
C680        C681   1.375       .  A
C681        H693   1.083       .  S
C682        H694   1.082       .  S
C682        C971   1.367       .  A
C683        H695   1.082       .  S
C683        C970   1.370   1_545  A
C684        H696   1.082       .  S
C684        C973   1.370       .  A
C685        H697   1.082       .  S
C685        C972   1.370   1_545  A
C686        C757   1.473       .  S
C687        C762   1.473       .  S
C688        C754   1.475       .  S
C689        C765   1.470       .  S
C700        N718   1.345   1_556  A
C700        C737   1.455       .  S
C700        C766   1.459       .  S
N701        N718   1.323       .  A
N701        N723   1.322   1_554  A
C702        N727   1.352       .  A
C702        C740   1.472       .  S
C702        H747   1.081       .  S
H703        C744   1.081       .  S
C704        N728   1.340       .  A
C704        C708   1.458   1_554  S
C704        H733   1.081       .  S
Co705       N745   2.075       .  S
Co705       N721   2.089       .  S
Co705      Cl749   2.453   1_556  S
N706        C744   1.347       .  A
N706        N713   1.318       .  A
Co707       N727   2.115       .  S
Co707       N714   2.086       .  S
Co707      Cl749   2.449   1_556  S
C708        N746   1.343       .  A
C708        C758   1.459       .  S
N709        N716   1.318       .  A
N709        N739   1.328       .  A
N710        N728   1.321   1_556  A
N710        N746   1.320       .  A
N711        C740   1.352       .  A
N711        N721   1.327       .  A
H712        C737   1.081       .  S
N713        N734   1.330       .  A
N714        N732   1.322   1_556  A
N714        N719   1.323       .  A
C715        N719   1.348   1_554  A
C715        C743   1.450       .  S
C715        C761   1.462       .  S
N716        C731   1.350       .  A
C717        N745   1.335       .  A
C717        C720   1.453   1_556  S
C717        H751   1.081       .  S
C720        N741   1.348       .  A
C720        C753   1.464       .  S
N721        N727   1.318       .  A
N722        C748   1.350       .  A
N722        N724   1.319       .  A
N722       Co738   2.108   1_655  S
N723        C737   1.336       .  A
N724        N752   1.328       .  A
N724       Co742   2.097   1_655  S
H725        C748   1.081       .  S
H726        C743   1.081       .  S
N729        N741   1.325       .  A
N729        N745   1.322   1_554  A
N729       Co738   2.087   1_655  S
C730        N734   1.352       .  A
C730        C744   1.463       .  S
C730        C839   1.488       .  S
C731        C750   1.470       .  S
C731        H735   1.081       .  S
N732        C743   1.339       .  A
N732       Co742   2.077   1_655  S
C736        N752   1.352       .  A
C736        C748   1.467       .  S
C736        C770   1.493       .  S
Co738      Cl749   2.453   1_455  S
N739        C750   1.353       .  A
C740        C829   1.500       .  S
Co742      Cl749   2.460   1_455  S
C750        C780   1.499       .  S
C753        C754   1.340   1_554  D
C753        H755   1.087       .  S
C754        H756   1.086       .  S
C757        C758   1.336   1_554  D
C757        H759   1.085       .  S
C758        H760   1.088       .  S
C761        C762   1.336   1_554  D
C761        H763   1.087       .  S
C762        H764   1.087       .  S
C765        C766   1.336       .  D
C765        H767   1.086       .  S
C766        H768   1.087   1_556  S
C769        H775   1.083       .  S
C769        C770   1.399       .  A
C769        C774   1.404       .  A
C770        C771   1.403       .  A
C771        H776   1.083       .  S
C771        C772   1.410       .  A
C772        H777   1.073       .  S
C772        C773   1.420       .  A
C773        C774   1.424       .  A
C774        H778   1.080       .  S
C779        H785   1.083       .  S
C779        C780   1.401       .  A
C779        C784   1.404       .  A
C780        C781   1.404       .  A
C781        H786   1.082       .  S
C781        C782   1.409       .  A
C782        H787   1.082       .  S
C782        C783   1.423       .  A
C783        C784   1.423       .  A
C784        H788   1.074       .  S
C789        H795   1.083       .  S
C789        C790   1.400       .  A
C789        C794   1.405       .  A
C790        C791   1.405       .  A
C791        H796   1.083       .  S
C791        C792   1.412       .  A
C792        H797   1.079       .  S
C792        C793   1.419       .  A
C793        C794   1.421       .  A
C794        H798   1.083       .  S
C799        H805   1.082       .  S
C799        C800   1.406       .  A
C799        C804   1.407       .  A
C800        C801   1.402       .  A
C801        H806   1.083       .  S
C801        C802   1.401       .  A
C802        H807   1.079       .  S
C802        C803   1.419       .  A
C803        C804   1.418       .  A
C804        H808   1.083       .  S
C809        C810   1.338       .  D
C809        H811   1.086       .  S
C810        H812   1.087       .  S
C813        C814   1.335       .  D
C813        H815   1.088       .  S
C814        H816   1.085       .  S
C817        C818   1.334       .  D
C817        H819   1.087       .  S
C818        H820   1.087       .  S
C821        C822   1.337       .  D
C821        H823   1.088       .  S
C822        H824   1.086       .  S
C825        H831   1.083       .  S
C825        C826   1.420       .  A
C825        C830   1.412       .  A
C826        C827   1.421       .  A
C827        H832   1.077       .  S
C827        C828   1.402       .  A
C828        H833   1.083       .  S
C828        C829   1.402       .  A
C829        C830   1.406       .  A
C830        H834   1.082       .  S
C835        H841   1.083       .  S
C835        C836   1.423       .  A
C835        C840   1.403       .  A
C836        C837   1.415       .  A
C837        H842   1.078       .  S
C837        C838   1.410       .  A
C838        H843   1.083       .  S
C838        C839   1.405       .  A
C839        C840   1.398       .  A
C840        H844   1.083       .  S
C845        H851   1.083       .  S
C845        C846   1.420       .  A
C845        C850   1.410       .  A
C846        C847   1.422       .  A
C847        H852   1.076       .  S
C847        C848   1.398       .  A
C848        H853   1.083       .  S
C848        C849   1.399       .  A
C849        C850   1.406       .  A
C850        H854   1.082       .  S
C855        H861   1.082       .  S
C855        C856   1.421       .  A
C855        C860   1.400       .  A
C856        C857   1.417       .  A
C857        H862   1.077       .  S
C857        C858   1.410       .  A
C858        H863   1.083       .  S
C858        C859   1.404       .  A
C859        C860   1.397       .  A
C860        H864   1.083       .  S
C865       C1114   1.577       .  S
C865       C1124   1.573       .  S
C865       C1134   1.578       .  S
C865       C1144   1.572       .  S
C866        N884   1.346       .  A
C866        C903   1.452       .  S
C866       C1101   1.457       .  S
N867        N884   1.322       .  A
N867        N889   1.321       .  A
C868        N893   1.350       .  A
C868        C906   1.468       .  S
C868        H913   1.081       .  S
H869        C910   1.081       .  S
C870        N894   1.342       .  A
C870        C874   1.460       .  S
C870        H899   1.081       .  S
Co871       N911   2.076       .  S
Co871       N887   2.095       .  S
Co871      Cl915   2.457   1_565  S
N872        C910   1.348       .  A
N872        N879   1.319       .  A
Co873       N893   2.102       .  S
Co873       N880   2.082       .  S
Co873      Cl915   2.446   1_565  S
C874        N912   1.343       .  A
C874       C1109   1.464       .  S
N875        N882   1.319       .  A
N875        N905   1.326       .  A
N876        N894   1.322       .  A
N876        N912   1.322       .  A
N877        C906   1.352       .  A
N877        N887   1.326       .  A
H878        C903   1.081       .  S
N879        N900   1.329       .  A
N880        N898   1.321       .  A
N880        N885   1.323       .  A
C881        N885   1.347       .  A
C881        C909   1.454       .  S
C881       C1098   1.461       .  S
N882        C897   1.352       .  A
C883        N911   1.338       .  A
C883        C886   1.455       .  S
C883        H917   1.081       .  S
C886        N907   1.345       .  A
C886       C1106   1.459       .  S
N887        N893   1.318       .  A
N888        C914   1.346       .  A
N888        N890   1.319       .  A
N888       Co904   2.095   1_565  S
N889        C903   1.336       .  A
N890        N918   1.330       .  A
N890       Co908   2.101   1_565  S
H891        C914   1.081       .  S
H892        C909   1.081       .  S
N895        N907   1.322       .  A
N895        N911   1.321       .  A
N895       Co904   2.077   1_565  S
C896        N900   1.351       .  A
C896        C910   1.464       .  S
C896       C1147   1.488       .  S
C897        C916   1.472       .  S
C897        H901   1.081       .  S
N898        C909   1.335       .  A
N898       Co908   2.072   1_565  S
C902        N918   1.353       .  A
C902        C914   1.460       .  S
C902       C1078   1.486       .  S
Co904      Cl915   2.445       .  S
N905        C916   1.352       .  A
C906       C1137   1.494       .  S
Co908      Cl915   2.456       .  S
C916       C1088   1.498       .  S
N919        C923   1.351       .  A
N919        H951   1.036       .  S
N920        C927   1.348       .  A
N920        C928   1.348       .  A
N921        C925   1.349       .  A
N921        H952   1.035       .  S
N922        C929   1.347       .  A
N922        C930   1.348       .  A
C923        C931   1.384       .  A
C923        C939   1.410       .  A
C924        C940   1.408       .  A
C924        C932   1.386       .  A
C925        C933   1.384       .  A
C925        C942   1.409       .  A
C926        C941   1.414       .  A
C926        C934   1.386       .  A
C927        C939   1.404       .  A
C927        C935   1.386       .  A
C928        C942   1.405       .  A
C928        C936   1.387       .  A
C929        C937   1.387       .  A
C929        C940   1.407       .  A
C930        C938   1.385       .  A
C930        C941   1.405       .  A
C931        H943   1.083       .  S
C932        H944   1.082       .  S
C933        H945   1.083       .  S
C934        H946   1.082       .  S
C935        H947   1.082       .  S
C935        C936   1.371       .  A
C936        H948   1.082       .  S
C937        H949   1.082       .  S
C937        C938   1.373       .  A
C938        H950   1.082       .  S
C939       C1105   1.474       .  S
C940       C1097   1.468       .  S
C941       C1110   1.481       .  S
C942       C1102   1.473       .  S
C953       C1061   1.575       .  S
C953       C1071   1.576       .  S
C953       C1081   1.577       .  S
C953       C1091   1.585       .  S
N954        C959   1.349       .  A
N954        C958   1.352       .  A
N954        H986   1.033       .  S
N955        C963   1.351       .  A
N956        C961   1.350       .  A
N956        C960   1.349       .  A
N956        H987   1.036       .  S
N957        C965   1.348       .  A
C958        C966   1.387       .  A
C958        C974   1.414       .  A
C959        C975   1.413       .  A
C959        C967   1.388       .  A
C960        C968   1.386       .  A
C960        C977   1.408       .  A
C961        C976   1.410       .  A
C961        C969   1.388       .  A
C962        C974   1.411       .  A
C962        C970   1.387       .  A
C963        C977   1.412       .  A
C963        C971   1.386       .  A
C964        C972   1.387       .  A
C964        C975   1.412       .  A
C965        C973   1.386       .  A
C965        C976   1.410       .  A
C966        H978   1.082       .  S
C966        C967   1.377       .  A
C967        H979   1.082       .  S
C968        H980   1.082       .  S
C968        C969   1.374       .  A
C969        H981   1.082       .  S
C970        H982   1.082       .  S
C971        H983   1.082       .  S
C972        H984   1.082       .  S
C973        H985   1.082       .  S
C974       C1045   1.479       .  S
C975       C1050   1.473       .  S
C976       C1042   1.472       .  S
C977       C1053   1.477       .  S
C988       N1006   1.344       .  A
C988       C1025   1.458   1_554  S
C988       C1054   1.460       .  S
N989       N1006   1.322       .  A
N989       N1011   1.322   1_554  A
C990       N1015   1.349       .  A
C990       C1028   1.465       .  S
C990       H1035   1.081       .  S
H991       C1032   1.081       .  S
C992       N1016   1.343       .  A
C992        C996   1.456       .  S
C992       H1021   1.081       .  S
Co993      N1033   2.075       .  S
Co993      N1009   2.101       .  S
Co993     Cl1037   2.456   1_556  S
N994       C1032   1.348       .  A
N994       N1001   1.319       .  A
Co995      N1015   2.101       .  S
Co995      N1002   2.086       .  S
Co995     Cl1037   2.447   1_556  S
C996       N1034   1.347   1_554  A
C996       C1046   1.469       .  S
N997       N1004   1.319       .  A
N997       N1027   1.329       .  A
N998       N1016   1.322   1_556  A
N998       N1034   1.323       .  A
N999       C1028   1.355       .  A
N999       N1009   1.328       .  A
H1000      C1025   1.081       .  S
N1001      N1022   1.331       .  A
N1002      N1020   1.322   1_556  A
N1002      N1007   1.322       .  A
C1003      N1007   1.347   1_554  A
C1003      C1031   1.453       .  S
C1003      C1049   1.464       .  S
N1004      C1019   1.348       .  A
C1005      N1033   1.337       .  A
C1005      C1008   1.455   1_556  S
C1005      H1039   1.081       .  S
C1008      N1029   1.346       .  A
C1008      C1041   1.462       .  S
N1009      N1015   1.318       .  A
N1010      C1036   1.347       .  A
N1010      N1012   1.320       .  A
N1010     Co1026   2.101       .  S
N1011      C1025   1.339       .  A
N1012      N1040   1.331       .  A
N1012     Co1030   2.107   1_655  S
H1013      C1036   1.081       .  S
H1014      C1031   1.081       .  S
N1017      N1029   1.323       .  A
N1017      N1033   1.321   1_554  A
N1017     Co1026   2.082       .  S
C1018      N1022   1.354       .  A
C1018      C1032   1.462       .  S
C1018      C1127   1.491       .  S
C1019      C1038   1.467       .  S
C1019      H1023   1.081       .  S
N1020      C1031   1.341       .  A
N1020     Co1030   2.077   1_655  S
C1024      N1040   1.354       .  A
C1024      C1036   1.461       .  S
C1024      C1058   1.489       .  S
Co1026    Cl1037   2.450       .  S
N1027      C1038   1.355       .  A
C1028      C1117   1.497       .  S
Co1030    Cl1037   2.460   1_455  S
C1038      C1068   1.498       .  S
C1041      C1042   1.337   1_554  D
C1041      H1043   1.087       .  S
C1042      H1044   1.086       .  S
C1045      C1046   1.341   1_556  D
C1045      H1047   1.087       .  S
C1046      H1048   1.087       .  S
C1049      C1050   1.338   1_554  D
C1049      H1051   1.087       .  S
C1050      H1052   1.087       .  S
C1053      C1054   1.337   1_556  D
C1053      H1055   1.086       .  S
C1054      H1056   1.087       .  S
C1057      H1063   1.083       .  S
C1057      C1058   1.398       .  A
C1057      C1062   1.402       .  A
C1058      C1059   1.407       .  A
C1059      H1064   1.083       .  S
C1059      C1060   1.412       .  A
C1060      H1065   1.079       .  S
C1060      C1061   1.416       .  A
C1061      C1062   1.422       .  A
C1062      H1066   1.083       .  S
C1067      H1073   1.083       .  S
C1067      C1068   1.401       .  A
C1067      C1072   1.403       .  A
C1068      C1069   1.407       .  A
C1069      H1074   1.082       .  S
C1069      C1070   1.410       .  A
C1070      H1075   1.083       .  S
C1070      C1071   1.418       .  A
C1071      C1072   1.421       .  A
C1072      H1076   1.078       .  S
C1077      H1083   1.083       .  S
C1077      C1078   1.396       .  A
C1077      C1082   1.400       .  A
C1078      C1079   1.405       .  A
C1079      H1084   1.083       .  S
C1079      C1080   1.410       .  A
C1080      H1085   1.075       .  S
C1080      C1081   1.416       .  A
C1081      C1082   1.425       .  A
C1082      H1086   1.082       .  S
C1087      H1093   1.083       .  S
C1087      C1088   1.406       .  A
C1087      C1092   1.414       .  A
C1088      C1089   1.400       .  A
C1089      H1094   1.083       .  S
C1089      C1090   1.400       .  A
C1090      H1095   1.076       .  S
C1090      C1091   1.422       .  A
C1091      C1092   1.422       .  A
C1092      H1096   1.082       .  S
C1097      C1098   1.338       .  D
C1097      H1099   1.085       .  S
C1098      H1100   1.087       .  S
C1101      C1102   1.339       .  D
C1101      H1103   1.087       .  S
C1102      H1104   1.086       .  S
C1105      C1106   1.338       .  D
C1105      H1107   1.086       .  S
C1106      H1108   1.087       .  S
C1109      C1110   1.337       .  D
C1109      H1111   1.087       .  S
C1110      H1112   1.087       .  S
C1113      H1119   1.083       .  S
C1113      C1114   1.418       .  A
C1113      C1118   1.413       .  A
C1114      C1115   1.422       .  A
C1115      H1120   1.077       .  S
C1115      C1116   1.399       .  A
C1116      H1121   1.083       .  S
C1116      C1117   1.398       .  A
C1117      C1118   1.409       .  A
C1118      H1122   1.083       .  S
C1123      H1129   1.083       .  S
C1123      C1124   1.421       .  A
C1123      C1128   1.404       .  A
C1124      C1125   1.416       .  A
C1125      H1130   1.079       .  S
C1125      C1126   1.411       .  A
C1126      H1131   1.083       .  S
C1126      C1127   1.406       .  A
C1127      C1128   1.399       .  A
C1128      H1132   1.083       .  S
C1133      H1139   1.083       .  S
C1133      C1134   1.420       .  A
C1133      C1138   1.412       .  A
C1134      C1135   1.421       .  A
C1135      H1140   1.076       .  S
C1135      C1136   1.399       .  A
C1136      H1141   1.083       .  S
C1136      C1137   1.399       .  A
C1137      C1138   1.406       .  A
C1138      H1142   1.083       .  S
C1143      H1149   1.083       .  S
C1143      C1144   1.421       .  A
C1143      C1148   1.401       .  A
C1144      C1145   1.416       .  A
C1145      H1150   1.078       .  S
C1145      C1146   1.411       .  A
C1146      H1151   1.083       .  S
C1146      C1147   1.405       .  A
C1147      C1148   1.398       .  A
C1148      H1152   1.083       .  S
