geometry optimzed in LAMMPS
_audit_creation_date              2020-12-01 
_audit_creation_method            'lammps2cif' 
_symmetry_space_group_name_H-M    'P1' 
_symmetry_Int_Tables_number       1 
_symmetry_cell_setting            triclinic 
loop_ 
_symmetry_equiv_pos_as_xyz 
  x,y,z 
_cell_length_a                    39.06967376 
_cell_length_b                    39.13189933176901 
_cell_length_c                    60.1895667006593 
_cell_angle_alpha                 90.04482582266286 
_cell_angle_beta                  89.99188287444248 
_cell_angle_gamma                 90.12013690261607 
loop_ 
_atom_site_label 
_atom_site_type_symbol 
_atom_site_fract_x 
_atom_site_fract_y 
_atom_site_fract_z 
_atom_site_charge 
O1          O  0.40762550  0.19883154  0.13116035    -0.72800
O2          O  0.43561647  0.09916748  0.13372550    -0.73800
O3          O  0.40966608  0.14337901  0.10046043    -0.62400
O4          O  0.43506170  0.15426786  0.16471803    -0.70800
O5          O  0.38239978  0.14009955  0.17480052    -0.70300
O6          O  0.35646709  0.12928612  0.10960336    -0.61600
O7          O  0.38278753  0.08543663  0.14334265    -0.74100
O8          O  0.35497055  0.18317050  0.14074199    -0.72900
Cu9        Cu  0.42384673  0.14947736  0.13225054     1.04600
Cu10       Cu  0.36737824  0.13403516  0.14254911     1.04300
C11         C  0.37627193  0.20622575  0.13497455     0.93400
C12         C  0.41334257  0.07641210  0.13867165     0.92600
C13         C  0.37939224  0.13462227  0.09479478     0.84700
C14         C  0.41307149  0.14861268  0.18000003     0.91000
O15         O  0.50727473  0.76485359  0.17436827    -0.72800
O16         O  0.52657248  0.77414711  0.10843500    -0.73800
O17         O  0.50121985  0.81774385  0.14265435    -0.62400
O18         O  0.53363734  0.72133745  0.14008534    -0.70800
O19         O  0.48072985  0.70252807  0.13416611    -0.70300
O20         O  0.44872435  0.80105673  0.13360791    -0.61600
O21         O  0.47451545  0.75407728  0.10145294    -0.74100
O22         O  0.45390161  0.74957713  0.16642726    -0.72900
Cu23       Cu  0.51902839  0.77005188  0.14169005     1.04600
Cu24       Cu  0.46261832  0.75114645  0.13368845     1.04300
C25         C  0.47692123  0.75714194  0.18065063     0.93400
C26         C  0.50356655  0.76466000  0.09458733     0.92600
C27         C  0.46998978  0.82479304  0.13858857     0.84700
C28         C  0.51277885  0.69685329  0.13642119     0.91000
O29         O  0.38159003  0.09392702  0.88487033    -0.72800
O30         O  0.34999362  0.18952323  0.87747963    -0.73800
O31         O  0.37975409  0.14019383  0.84866111    -0.62400
O32         O  0.35337471  0.14297811  0.91405102    -0.70800
O33         O  0.40559163  0.16116839  0.92181650    -0.70300
O34         O  0.43099372  0.16051607  0.85728396    -0.61600
O35         O  0.40117884  0.20977022  0.88644602    -0.74100
O36         O  0.43422965  0.11202607  0.89231125    -0.72900
Cu37       Cu  0.36437451  0.14112213  0.88097220     1.04600
Cu38       Cu  0.41979023  0.16160327  0.88978030     1.04300
C39         C  0.41268997  0.08765958  0.88966978     0.93400
C40         C  0.37003241  0.21481007  0.88075768     0.92600
C41         C  0.40980486  0.14966875  0.84272780     0.84700
C42         C  0.37593384  0.15173165  0.92840830     0.91000
O43         O  0.50455802  0.83260107  0.88428496    -0.72800
O44         O  0.53729478  0.73706681  0.87968672    -0.73800
O45         O  0.51201007  0.78540842  0.84887523    -0.62400
O46         O  0.52850884  0.78411538  0.91531648    -0.70800
O47         O  0.47481560  0.76717991  0.92019582    -0.70300
O48         O  0.46005589  0.76431378  0.85450334    -0.61600
O49         O  0.48523277  0.71679505  0.88634890    -0.74100
O50         O  0.45093419  0.81452194  0.88799609    -0.72900
Cu51       Cu  0.52242562  0.78537240  0.88186377     1.04600
Cu52       Cu  0.46589168  0.76496834  0.88747222     1.04300
C53         C  0.47277730  0.83885392  0.88659137     0.93400
C54         C  0.51700089  0.71182280  0.88228134     0.92600
C55         C  0.48322397  0.77502309  0.84125258     0.84700
C56         C  0.50363426  0.77638461  0.92822794     0.91000
O57         O  0.35851667  0.73792993  0.64272956    -0.72800
O58         O  0.39027971  0.83443180  0.63860541    -0.73800
O59         O  0.36235105  0.78700736  0.60793323    -0.62400
O60         O  0.38774073  0.78497931  0.67327058    -0.70800
O61         O  0.43893554  0.76511155  0.66425484    -0.70300
O62         O  0.41525983  0.77056738  0.60001953    -0.61600
O63         O  0.44320332  0.81702835  0.63144072    -0.74100
O64         O  0.40973106  0.71873831  0.63291993    -0.72900
Cu65       Cu  0.37290097  0.78666316  0.64096461     1.04600
Cu66       Cu  0.42859498  0.76719664  0.63185988     1.04300
C67         C  0.37856182  0.71311813  0.63840594     0.93400
C68         C  0.42157030  0.84112907  0.63443542     0.92600
C69         C  0.38556221  0.77984199  0.59366563     0.84700
C70         C  0.41743043  0.77428868  0.67901334     0.91000
O71         O  0.48163257  0.16220506  0.60173066    -0.72800
O72         O  0.46000885  0.16618226  0.66679690    -0.73800
O73         O  0.48570927  0.21419256  0.63512157    -0.62400
O74         O  0.45713256  0.11455969  0.63378108    -0.70800
O75         O  0.51113649  0.09958258  0.63968893    -0.70300
O76         O  0.53797181  0.19753388  0.64459797    -0.61600
O77         O  0.51219342  0.14803626  0.67488581    -0.74100
O78         O  0.53573086  0.14920586  0.60897883    -0.72900
Cu79       Cu  0.46928431  0.16490085  0.63405683     1.04600
Cu80       Cu  0.52613410  0.14813838  0.64229753     1.04300
C81         C  0.51173298  0.15491831  0.59497073     0.93400
C82         C  0.48223576  0.15719619  0.68117475     0.92600
C83         C  0.51654604  0.22130947  0.64064406     0.84700
C84         C  0.47990305  0.09145995  0.63648687     0.91000
O85         O  0.43895097  0.81394653  0.39043461    -0.72800
O86         O  0.40557276  0.71572903  0.38817233    -0.73800
O87         O  0.43380163  0.76292765  0.35687093    -0.62400
O88         O  0.41165936  0.76597274  0.42167204    -0.70800
O89         O  0.35979793  0.78610403  0.41445649    -0.70300
O90         O  0.38097253  0.77941522  0.34877284    -0.61600
O91         O  0.35318149  0.73532236  0.38176545    -0.74100
O92         O  0.38675799  0.83126960  0.38179055    -0.72900
Cu93       Cu  0.42439567  0.76408126  0.38952749     1.04600
Cu94       Cu  0.36843619  0.78371894  0.38136136     1.04300
C95         C  0.41790799  0.83818773  0.38636396     0.93400
C96         C  0.37353387  0.71049376  0.38530322     0.92600
C97         C  0.41087154  0.77012190  0.34253159     0.84700
C98         C  0.38223590  0.77569268  0.42835165     0.91000
O99         O  0.49094524  0.21087253  0.38598841    -0.72800
O100        O  0.46091784  0.11160365  0.38874448    -0.73800
O101        O  0.48449474  0.16147759  0.42014873    -0.62400
O102        O  0.46591706  0.16132981  0.35473001    -0.70800
O103        O  0.51963664  0.14633857  0.34783233    -0.70300
O104        O  0.53757808  0.14362467  0.41466700    -0.61600
O105        O  0.51431683  0.09601710  0.38170692    -0.74100
O106        O  0.54431643  0.19308782  0.38083812    -0.72900
Cu107      Cu  0.47371041  0.16188655  0.38761274     1.04600
Cu108      Cu  0.53080370  0.14417743  0.38101108     1.04300
C109        C  0.52290004  0.21721309  0.38367847     0.93400
C110        C  0.48306124  0.08817701  0.38503926     0.92600
C111        C  0.51379202  0.15340761  0.42788863     0.84700
C112        C  0.48944792  0.15353986  0.34094492     0.91000
O113        O  0.14561449  0.42470771  0.09434945    -0.72800
O114        O  0.14956683  0.44173997  0.15945677    -0.73800
O115        O  0.19599024  0.41351963  0.12788010    -0.62400
O116        O  0.09922719  0.45125394  0.12598245    -0.70800
O117        O  0.07935539  0.39855835  0.13078085    -0.70300
O118        O  0.17420810  0.36247883  0.13549867    -0.61600
O119        O  0.12698524  0.39091675  0.16635601    -0.74100
O120        O  0.12682813  0.37186386  0.09990943    -0.72900
Cu121      Cu  0.14840410  0.43457952  0.12672924     1.04600
Cu122      Cu  0.12620149  0.37911308  0.13338998     1.04300
C123        C  0.13537317  0.39606468  0.08669012     0.93400
C124        C  0.13842348  0.41970774  0.17331176     0.92600
C125        C  0.20008596  0.38174603  0.13220218     0.84700
C126        C  0.07413385  0.43029578  0.12752110     0.91000
O127        O  0.75071984  0.49346562  0.09505549    -0.72800
O128        O  0.74965735  0.47059990  0.15983495    -0.73800
O129        O  0.70073195  0.49738948  0.12923999    -0.62400
O130        O  0.79987512  0.46738842  0.12549025    -0.70800
O131        O  0.81629934  0.52040801  0.13292613    -0.70300
O132        O  0.71882839  0.54950097  0.13784428    -0.61600
O133        O  0.76758211  0.52282407  0.16800573    -0.74100
O134        O  0.76735595  0.54633675  0.10271470    -0.72900
Cu135      Cu  0.74966541  0.48033524  0.12714273     1.04600
Cu136      Cu  0.76807567  0.53655644  0.13566043     1.04300
C137        C  0.75929781  0.52333754  0.08853977     0.93400
C138        C  0.75818440  0.49298791  0.17425068     0.92600
C139        C  0.69438034  0.52855206  0.13416439     0.84700
C140        C  0.82372034  0.48940587  0.12848182     0.91000
O141        O  0.09660911  0.46087280  0.88163066    -0.72800
O142        O  0.19472120  0.42763003  0.87981828    -0.73800
O143        O  0.14780529  0.45531754  0.84813046    -0.62400
O144        O  0.14391435  0.43425480  0.91318565    -0.70800
O145        O  0.12394648  0.38227599  0.90608791    -0.70300
O146        O  0.12986478  0.40296453  0.84024556    -0.61600
O147        O  0.17499017  0.37534705  0.87306311    -0.74100
O148        O  0.07900407  0.40848095  0.87340786    -0.72900
Cu149      Cu  0.14642717  0.44638487  0.88091669     1.04600
Cu150      Cu  0.12639623  0.39047007  0.87288421     1.04300
C151        C  0.07234073  0.43964164  0.87778022     0.93400
C152        C  0.19987270  0.39572140  0.87670194     0.92600
C153        C  0.13898437  0.43281959  0.83383921     0.84700
C154        C  0.13323330  0.40523296  0.92000228     0.91000
O155        O  0.79913345  0.47716765  0.88129860    -0.72800
O156        O  0.69979791  0.50608083  0.88431643    -0.73800
O157        O  0.74461139  0.48275675  0.85020765    -0.62400
O158        O  0.75455920  0.49947671  0.91536422    -0.70800
O159        O  0.76967330  0.55333937  0.90904904    -0.70300
O160        O  0.75996101  0.53606859  0.84307661    -0.61600
O161        O  0.71638119  0.55948075  0.87776143    -0.74100
O162        O  0.81376972  0.53092556  0.87451221    -0.72900
Cu163      Cu  0.74893472  0.48947790  0.88300993     1.04600
Cu164      Cu  0.76543920  0.54678884  0.87582822     1.04300
C165        C  0.82208946  0.49975819  0.87736894     0.93400
C166        C  0.69282556  0.53775809  0.88174035     0.92600
C167        C  0.75105428  0.50641307  0.83619815     0.86300
C168        C  0.76383895  0.52876517  0.92253400     0.91000
O169        O  0.69843873  0.42473979  0.63040765    -0.72800
O170        O  0.79746518  0.45619012  0.62690952    -0.73800
O171        O  0.74824951  0.42944524  0.59646338    -0.62400
O172        O  0.74681125  0.45285978  0.66081492    -0.70800
O173        O  0.76394996  0.40074309  0.66954610    -0.70300
O174        O  0.76649802  0.37702735  0.60366183    -0.61600
O175        O  0.81409306  0.40373738  0.63521557    -0.74100
O176        O  0.71730527  0.37251982  0.63791883    -0.72900
Cu177      Cu  0.74722853  0.44265484  0.62841046     1.04600
Cu178      Cu  0.76612834  0.38672854  0.63693646     1.04300
C179        C  0.69270981  0.39302284  0.63405299     0.93400
C180        C  0.82147786  0.43465871  0.63049575     0.92600
C181        C  0.75653874  0.39968363  0.58974290     0.84700
C182        C  0.75487082  0.43083259  0.67551334     0.91000
O183        O  0.19445920  0.50996015  0.62599723    -0.72800
O184        O  0.09596546  0.47677819  0.62461533    -0.73800
O185        O  0.14367194  0.50220813  0.59271687    -0.62400
O186        O  0.14709966  0.48348987  0.65788113    -0.70800
O187        O  0.13031314  0.53614132  0.66531061    -0.70300
O188        O  0.12344991  0.55425663  0.59904120    -0.61600
O189        O  0.07874969  0.52933694  0.63263831    -0.74100
O190        O  0.17517027  0.56259884  0.63159733    -0.72900
Cu191      Cu  0.14594525  0.49127848  0.62508173     1.04600
Cu192      Cu  0.12636643  0.54742830  0.63240781     1.04300
C193        C  0.19995112  0.54199306  0.62839767     0.93400
C194        C  0.07193067  0.49798554  0.62892417     0.92600
C195        C  0.13287567  0.53087058  0.58548425     0.84700
C196        C  0.13900942  0.50638117  0.67206927     0.91000
O197        O  0.81297116  0.40804869  0.38014353    -0.72800
O198        O  0.71681772  0.37648670  0.37370279    -0.73800
O199        O  0.76638418  0.40385464  0.34425178    -0.62400
O200        O  0.76367442  0.38166837  0.40989129    -0.70800
O201        O  0.74717683  0.43486371  0.41648392    -0.70300
O202        O  0.74529110  0.45532020  0.35130744    -0.61600
O203        O  0.69719427  0.42806387  0.38220707    -0.74100
O204        O  0.79521954  0.46133990  0.38538921    -0.72900
Cu205      Cu  0.76548781  0.39068510  0.37674461     1.04600
Cu206      Cu  0.74549577  0.44674719  0.38412031     1.04300
C207        C  0.81943050  0.43955067  0.38352846     0.93400
C208        C  0.69184907  0.39682775  0.37695064     0.92600
C209        C  0.75635298  0.43316937  0.33749010     0.84700
C210        C  0.75612781  0.40548252  0.42361931     0.91000
O211        O  0.17559571  0.55393229  0.37084663    -0.72800
O212        O  0.07829402  0.52479104  0.37343608    -0.73800
O213        O  0.12574006  0.55028218  0.40493885    -0.62400
O214        O  0.12842963  0.52716921  0.33932938    -0.70800
O215        O  0.14774209  0.47556671  0.34792164    -0.70300
O216        O  0.13918470  0.49646417  0.41261233    -0.61600
O217        O  0.09384848  0.47118288  0.37975990    -0.74100
O218        O  0.19292096  0.50226893  0.38101195    -0.72900
Cu219      Cu  0.12648110  0.54086170  0.37180431     1.04600
Cu220      Cu  0.14403750  0.48447817  0.38054934     1.04300
C221        C  0.19956494  0.53340698  0.37610361     0.93400
C222        C  0.07044300  0.49362455  0.37696396     0.92600
C223        C  0.13155419  0.52655488  0.41906112     0.84700
C224        C  0.13906142  0.49762170  0.33338269     0.91000
C225        C  0.85539653  0.45035752  0.38471262    -0.11800
C226        C  0.87857274  0.43374178  0.39899983     0.03700
C227        C  0.91352008  0.44112246  0.39767428    -0.12300
C228        C  0.92580761  0.46494338  0.38224431     0.18500
C229        C  0.90259245  0.48206990  0.36824202    -0.09400
C230        C  0.86756509  0.47486372  0.36967019    -0.02300
H231        H  0.93120731  0.42823301  0.40870277     0.05100
C232        C  0.96290148  0.47183206  0.38122113     0.20500
H233        H  0.84997320  0.48736297  0.35838586     0.10200
C234        C  0.98469533  0.44817290  0.37089996    -0.15700
C235        C  0.02001204  0.45426577  0.36955110     0.03200
C236        C  0.03381287  0.48457822  0.37860042    -0.11000
C237        C  0.01183356  0.50789775  0.38915783    -0.01100
C238        C  0.97675868  0.50158710  0.39071012    -0.06200
H239        H  0.97410582  0.42512005  0.36364125     0.06200
H240        H  0.02206225  0.53107977  0.39646758     0.09600
Br241      Br  0.91779009  0.51419771  0.34627502    -0.05900
Br242      Br  0.86353129  0.40152962  0.42100007    -0.02900
Br243      Br  0.04759789  0.42152069  0.35400773     0.00000
Br244      Br  0.94882254  0.53385337  0.40642166    -0.04400
C245        C  0.13210728  0.53651010  0.56120143    -0.11800
C246        C  0.10348979  0.55057610  0.55025429     0.03700
C247        C  0.10302207  0.55243414  0.52697998    -0.12300
C248        C  0.13069069  0.54034686  0.51435341     0.18500
C249        C  0.15951894  0.52698050  0.52530955    -0.09400
C250        C  0.15999764  0.52510251  0.54849453    -0.02300
H251        H  0.08052828  0.56231132  0.51864625     0.05100
C252        C  0.12819307  0.53923076  0.48982188     0.20500
H253        H  0.18212125  0.51410000  0.55665840     0.10200
C254        C  0.14798507  0.56166811  0.47688988    -0.15700
C255        C  0.14850927  0.55884407  0.45366067     0.03200
C256        C  0.12907918  0.53314988  0.44312085    -0.11000
C257        C  0.10884977  0.51118451  0.45606581    -0.01100
C258        C  0.10809879  0.51417804  0.47920095    -0.06200
H259        H  0.16383594  0.58076766  0.48495288     0.06200
H260        H  0.09396242  0.49118908  0.44813395     0.09600
Br261      Br  0.19793978  0.50900092  0.50925544    -0.05900
Br262      Br  0.06313002  0.56432448  0.56603718    -0.02900
Br263      Br  0.17841272  0.58850707  0.43727159     0.00000
Br264      Br  0.08081187  0.48217736  0.49567509    -0.04400
C265        C  0.75423809  0.39208282  0.56564152    -0.11800
C266        C  0.72776600  0.40618595  0.55252155     0.03700
C267        C  0.72856109  0.40271860  0.52943500    -0.12300
C268        C  0.75519065  0.38520496  0.51886942     0.18500
C269        C  0.78057439  0.36936522  0.53190290    -0.09400
C270        C  0.77978925  0.37262988  0.55515551    -0.02300
H271        H  0.70877200  0.41479382  0.51953589     0.05100
C272        C  0.75805288  0.38817783  0.49439208     0.20500
H273        H  0.80019545  0.36145062  0.56494941     0.10200
C274        C  0.76837618  0.41967558  0.48560750    -0.15700
C275        C  0.76854116  0.42548757  0.46271550     0.03200
C276        C  0.75799190  0.39940290  0.44793790    -0.11000
C277        C  0.74864915  0.36738383  0.45673238    -0.01100
C278        C  0.74833280  0.36174373  0.47979334    -0.06200
H279        H  0.77603929  0.44009751  0.49673219     0.06200
H280        H  0.74054428  0.34703814  0.44569709     0.09600
Br281      Br  0.81799626  0.34530923  0.51854831    -0.05900
Br282      Br  0.68950197  0.43031230  0.56501473    -0.02900
Br283      Br  0.78489670  0.46928825  0.45288045     0.00000
Br284      Br  0.73294150  0.31832609  0.49068425    -0.04400
C285        C  0.85824289  0.44475062  0.62962920    -0.11800
C286        C  0.87037525  0.47392797  0.61812175     0.03700
C287        C  0.90553870  0.48131101  0.61781620    -0.12300
C288        C  0.92906864  0.46005694  0.62863335     0.18500
C289        C  0.91721820  0.43108343  0.64001243    -0.09400
C290        C  0.88224433  0.42364585  0.64042932    -0.02300
H291        H  0.91463801  0.50369308  0.60900186     0.05100
C292        C  0.96582227  0.46900053  0.62856296     0.20500
H293        H  0.87383813  0.40118340  0.64943326     0.10200
C294        C  0.97864355  0.48984371  0.64555165    -0.15700
C295        C  0.01331621  0.49867110  0.64625442     0.03200
C296        C  0.03582864  0.48671317  0.62961041    -0.11000
C297        C  0.02308001  0.46510369  0.61289617    -0.01100
C298        C  0.98828717  0.45630724  0.61225033    -0.06200
H299        H  0.96160507  0.49906086  0.65842262     0.06200
H300        H  0.04002106  0.45572686  0.60002535     0.09600
Br301      Br  0.94800902  0.40103813  0.65528917    -0.05900
Br302      Br  0.84105249  0.50395586  0.60163443    -0.02900
Br303      Br  0.02876708  0.52547824  0.67108141     0.00000
Br304      Br  0.97233508  0.42716235  0.58880069    -0.04400
C305        C  0.75284424  0.44104334  0.69936427    -0.11800
C306        C  0.77035726  0.42383925  0.71663688     0.03700
C307        C  0.76779960  0.43574717  0.73857093    -0.12300
C308        C  0.74813304  0.46461779  0.74381547     0.18500
C309        C  0.73058747  0.48167690  0.72677576    -0.09400
C310        C  0.73300319  0.46990298  0.70490082    -0.02300
H311        H  0.78159209  0.42262006  0.75164343     0.05100
C312        C  0.74667547  0.47677427  0.76711244     0.20500
H313        H  0.71902307  0.48350603  0.69213467     0.10200
C314        C  0.76403092  0.50678359  0.77313982    -0.15700
C315        C  0.76495015  0.51788469  0.79529685     0.03200
C316        C  0.74839069  0.49845907  0.81203209    -0.11000
C317        C  0.73002749  0.46902160  0.80561714    -0.01100
C318        C  0.72902603  0.45822621  0.78348323    -0.06200
H319        H  0.77752698  0.52130912  0.76054910     0.06200
H320        H  0.71651257  0.45396648  0.81792266     0.09600
Br321      Br  0.70231992  0.52069420  0.73267905    -0.05900
Br322      Br  0.79953050  0.38518172  0.71163566    -0.02900
Br323      Br  0.79071227  0.55872793  0.80122710     0.00000
Br324      Br  0.70286853  0.41816191  0.77630560    -0.04400
C325        C  0.13927208  0.44209558  0.80986603    -0.11800
C326        C  0.11540030  0.42868118  0.79447566     0.03700
C327        C  0.11561808  0.44003986  0.77237408    -0.12300
C328        C  0.13955104  0.46434477  0.76499027     0.18500
C329        C  0.16347458  0.47756953  0.78026701    -0.09400
C330        C  0.16303537  0.46661304  0.80241567    -0.02300
H331        H  0.09684274  0.42994233  0.76084943     0.05100
C332        C  0.13935650  0.47528909  0.74130599     0.20500
H333        H  0.18165943  0.47717979  0.81386563     0.10200
C334        C  0.13229260  0.50944218  0.73581851    -0.15700
C335        C  0.13228724  0.52062058  0.71363036     0.03200
C336        C  0.13922822  0.49716944  0.69622117    -0.11000
C337        C  0.14604956  0.46291295  0.70198644    -0.01100
C338        C  0.14616227  0.45196882  0.72408763    -0.06200
H339        H  0.12680143  0.52758543  0.74894345     0.06200
H340        H  0.15140778  0.44416269  0.68921953     0.09600
Br341      Br  0.19812650  0.50970723  0.77154735    -0.05900
Br342      Br  0.08049532  0.39644862  0.80267788    -0.02900
Br343      Br  0.12298016  0.56821535  0.70882232     0.00000
Br344      Br  0.15699986  0.40496073  0.72983425    -0.04400
C345        C  0.85865710  0.49023079  0.87670528    -0.11800
C346        C  0.88203492  0.50675961  0.86232138     0.03700
C347        C  0.91681604  0.49869722  0.86327129    -0.12300
C348        C  0.92892806  0.47434530  0.87831999     0.18500
C349        C  0.90578086  0.45745727  0.89246127    -0.09400
C350        C  0.87088029  0.46529986  0.89148391    -0.02300
H351        H  0.93452287  0.51123917  0.85204863     0.05100
C352        C  0.96563291  0.46582695  0.87819722     0.20500
H353        H  0.85337038  0.45239027  0.90264173     0.10200
C354        C  0.98808980  0.48296030  0.89258272    -0.15700
C355        C  0.02315254  0.47542732  0.89260489     0.03200
C356        C  0.03607792  0.45041617  0.87790131    -0.11000
C357        C  0.01331064  0.43355289  0.86346429    -0.01100
C358        C  0.97844039  0.44110324  0.86350297    -0.06200
H359        H  0.97821229  0.50197509  0.90398284     0.06200
H360        H  0.02266852  0.41429353  0.85204763     0.09600
Br361      Br  0.92086540  0.42364923  0.91330595    -0.05900
Br362      Br  0.86809927  0.53908591  0.84012047    -0.02900
Br363      Br  0.05133617  0.49835406  0.91408860     0.00000
Br364      Br  0.94907473  0.41676206  0.84339171    -0.04400
C365        C  0.75725042  0.44182474  0.31356641    -0.11800
C366        C  0.78531281  0.43326686  0.29988269     0.03700
C367        C  0.78525829  0.44264297  0.27742124    -0.12300
C368        C  0.75764904  0.46062310  0.26824050     0.18500
C369        C  0.72973898  0.46936865  0.28189937    -0.09400
C370        C  0.72982629  0.46017870  0.30436814    -0.02300
H371        H  0.80690159  0.43596728  0.26705718     0.05100
C372        C  0.75800434  0.46925945  0.24428188     0.20500
H373        H  0.70822267  0.46718290  0.31466786     0.10200
C374        C  0.73561198  0.45208030  0.22991604    -0.15700
C375        C  0.73509732  0.45932364  0.20715208     0.03200
C376        C  0.75751989  0.48433378  0.19828696    -0.11000
C377        C  0.77984776  0.50159407  0.21282880    -0.01100
C378        C  0.78035277  0.49413230  0.23558417    -0.06200
H379        H  0.71827152  0.43297702  0.23651612     0.06200
H380        H  0.79726335  0.52081029  0.20646327     0.09600
Br381      Br  0.69131065  0.49451467  0.27071390    -0.05900
Br382      Br  0.82538127  0.41096398  0.31121605    -0.02900
Br383      Br  0.70175659  0.43522915  0.18962768     0.00000
Br384      Br  0.81142395  0.51909503  0.25422562    -0.04400
C385        C  0.76720246  0.53393542  0.94667715    -0.11800
C386        C  0.78625411  0.51102864  0.95981804     0.03700
C387        C  0.78540571  0.51375988  0.98295970    -0.12300
C388        C  0.76561133  0.53896754  0.99333084     0.18500
C389        C  0.74769692  0.56275853  0.98025517    -0.09400
C390        C  0.74879362  0.56028290  0.95703394    -0.02300
H391        H  0.79944677  0.49552147  0.99294953     0.05100
C392        C  0.76185256  0.53792217  0.01772046     0.20500
H393        H  0.73394961  0.57793868  0.94709614     0.10200
C394        C  0.78408067  0.55690408  0.03122641    -0.15700
C395        C  0.78315445  0.55354432  0.05441990     0.03200
C396        C  0.75962108  0.53065003  0.06437100    -0.11000
C397        C  0.73684199  0.51244037  0.05066342    -0.01100
C398        C  0.73780189  0.51593451  0.02759251    -0.06200
H399        H  0.80288757  0.57363954  0.02364465     0.06200
H400        H  0.71839792  0.49495861  0.05791072     0.09600
Br401      Br  0.71993027  0.59758864  0.99350190    -0.05900
Br402      Br  0.81410322  0.47581578  0.94696254    -0.02900
Br403      Br  0.81658730  0.57870437  0.07118155     0.00000
Br404      Br  0.70639656  0.48945035  0.01008115    -0.04400
C405        C  0.13925609  0.42858906  0.19736196    -0.11800
C406        C  0.11603488  0.41508371  0.21313851     0.03700
C407        C  0.11670154  0.42698208  0.23515347    -0.12300
C408        C  0.13999793  0.45235318  0.24186756     0.18500
C409        C  0.16353823  0.46528930  0.22630848    -0.09400
C410        C  0.16301559  0.45343347  0.20441835    -0.02300
H411        H  0.09861199  0.41671684  0.24706644     0.05100
C412        C  0.13966251  0.46492895  0.26513703     0.20500
H413        H  0.18117274  0.46418413  0.19273265     0.10200
C414        C  0.16797822  0.45851749  0.27883044    -0.15700
C415        C  0.16875182  0.47011318  0.30081901     0.03200
C416        C  0.14060810  0.48817147  0.30961593    -0.11000
C417        C  0.11258892  0.49528068  0.29578019    -0.01100
C418        C  0.11187985  0.48372247  0.27372908    -0.06200
H419        H  0.18968381  0.44452781  0.27231912     0.06200
H420        H  0.09080750  0.50914458  0.30229727     0.09600
Br421      Br  0.19588468  0.50046641  0.23379223    -0.05900
Br422      Br  0.08139145  0.38219239  0.20564187    -0.02900
Br423      Br  0.20969458  0.46223541  0.31768632     0.00000
Br424      Br  0.07273342  0.49474100  0.25589494    -0.04400
C425        C  0.13256467  0.39855362  0.94420918    -0.11800
C426        C  0.10489175  0.38199167  0.95484005     0.03700
C427        C  0.10477275  0.37851065  0.97805628    -0.12300
C428        C  0.13189829  0.39128742  0.99090191     0.18500
C429        C  0.15977912  0.40711957  0.98026804    -0.09400
C430        C  0.15987409  0.41075279  0.95717736    -0.02300
H431        H  0.08295601  0.36677132  0.98618342     0.05100
C432        C  0.12970465  0.39073475  0.01543217     0.20500
H433        H  0.18137598  0.42345321  0.94930062     0.10200
C434        C  0.14183275  0.36241568  0.02736221    -0.15700
C435        C  0.14317631  0.36300057  0.05068631     0.03200
C436        C  0.13225779  0.39234778  0.06230876    -0.11000
C437        C  0.11940747  0.42023855  0.05023854    -0.01100
C438        C  0.11797653  0.41958454  0.02706985    -0.06200
H439        H  0.15130960  0.34027601  0.01847572     0.06200
H440        H  0.11070654  0.44291881  0.05889949     0.09600
Br441      Br  0.19783465  0.42504304  0.99676202    -0.05900
Br442      Br  0.06530623  0.36656616  0.93881472    -0.02900
Br443      Br  0.16300589  0.32456152  0.06562415     0.00000
Br444      Br  0.10082618  0.45915451  0.01191925    -0.04400
C445        C  0.03856347  0.44214648  0.12540581    -0.11800
C446        C  0.01663676  0.42790474  0.10924954     0.03700
C447        C  0.98187051  0.43635593  0.10912058    -0.12300
C448        C  0.96843590  0.45887181  0.12497724     0.18500
C449        C  0.99043481  0.47347952  0.14097081    -0.09400
C450        C  0.02533856  0.46530126  0.14095671    -0.02300
H451        H  0.96519867  0.42517368  0.09670319     0.05100
C452        C  0.93129597  0.46616930  0.12486312     0.20500
H453        H  0.04187385  0.47591279  0.15365734     0.10200
C454        C  0.90827661  0.44116601  0.13239612    -0.15700
C455        C  0.87301547  0.44766063  0.13327445     0.03200
C456        C  0.86032298  0.47983257  0.12655883    -0.11000
C457        C  0.88352174  0.50442806  0.11848239    -0.01100
C458        C  0.91861568  0.49771932  0.11740586    -0.06200
H459        H  0.91788713  0.41672386  0.13802296     0.06200
H460        H  0.87430740  0.52903682  0.11288183     0.09600
Br461      Br  0.97353610  0.50304080  0.16390717    -0.05900
Br462      Br  0.03321559  0.39729556  0.08675543    -0.02900
Br463      Br  0.84412737  0.41242190  0.14519149     0.00000
Br464      Br  0.94825539  0.53210515  0.10523836    -0.04400
C465        C  0.53627735  0.25230628  0.38485922    -0.11800
C466        C  0.56157995  0.26062160  0.40063254     0.03700
C467        C  0.57937501  0.29142853  0.39897062    -0.12300
C468        C  0.57250652  0.31446523  0.38170988     0.18500
C469        C  0.54584813  0.30704018  0.36662582    -0.09400
C470        C  0.52774203  0.27613988  0.36838801    -0.02300
H471        H  0.60002921  0.29656816  0.41052857     0.05100
C472        C  0.59723330  0.34265779  0.37800702     0.20500
H473        H  0.50840231  0.26988337  0.35613268     0.10200
C474        C  0.61819877  0.34117569  0.35910810    -0.15700
C475        C  0.64775550  0.36116287  0.35760838     0.03200
C476        C  0.65686319  0.38301502  0.37527240    -0.11000
C477        C  0.63428043  0.38699058  0.39319839    -0.01100
C478        C  0.60468668  0.36683430  0.39473530    -0.06200
H479        H  0.61285142  0.32272491  0.34613359     0.06200
H480        H  0.64091826  0.40387287  0.40680763     0.09600
Br481      Br  0.53431272  0.33764095  0.34292796    -0.05900
Br482      Br  0.57376475  0.23008580  0.42430599    -0.02900
Br483      Br  0.67562396  0.35668799  0.33147239     0.00000
Br484      Br  0.57640813  0.37156591  0.42060702    -0.04400
C485        C  0.35860892  0.67605046  0.38702011    -0.11800
C486        C  0.36814556  0.64906183  0.37286698     0.03700
C487        C  0.34831347  0.61911280  0.37231897    -0.12300
C488        C  0.31878055  0.61597021  0.38555018     0.18500
C489        C  0.31078766  0.64218035  0.40076333    -0.09400
C490        C  0.33067453  0.67179008  0.40137007    -0.02300
H491        H  0.35458449  0.59920753  0.36049059     0.05100
C492        C  0.29356008  0.58849613  0.38099841     0.20500
H493        H  0.32320485  0.69244726  0.41235141     0.10200
C494        C  0.28482546  0.56506006  0.39776585    -0.15700
C495        C  0.25545287  0.54457085  0.39586209     0.03200
C496        C  0.23476185  0.54705055  0.37673442    -0.11000
C497        C  0.24516219  0.56841370  0.35929036    -0.01100
C498        C  0.27414788  0.58908600  0.36126755    -0.06200
H499        H  0.29944257  0.56457966  0.41306458     0.06200
H500        H  0.22936167  0.57066456  0.34455633     0.09600
Br501      Br  0.27078280  0.64083060  0.41931834    -0.05900
Br502      Br  0.40511915  0.65369183  0.35212978    -0.02900
Br503      Br  0.24221818  0.51758303  0.42106152     0.00000
Br504      Br  0.28333633  0.62074416  0.33762096    -0.04400
C505        C  0.42884892  0.87467610  0.38649390    -0.11800
C506        C  0.45818439  0.88675209  0.39791649     0.03700
C507        C  0.46619913  0.92173011  0.39764092    -0.12300
C508        C  0.44538583  0.94515395  0.38636185     0.18500
C509        C  0.41646069  0.93327486  0.37486080    -0.09400
C510        C  0.40840124  0.89849169  0.37503529    -0.02300
H511        H  0.48859735  0.93080097  0.40648632     0.05100
C512        C  0.45463419  0.98180900  0.38623584     0.20500
H513        H  0.38596711  0.89007235  0.36596957     0.10200
C514        C  0.48041642  0.99307657  0.37184899    -0.15700
C515        C  0.48943640  0.02764304  0.37080045     0.03200
C516        C  0.47282684  0.05168410  0.38468964    -0.11000
C517        C  0.44653824  0.04032223  0.39881901    -0.01100
C518        C  0.43744291  0.00569596  0.39969359    -0.06200
H519        H  0.49319340  0.97491374  0.36109793     0.06200
H520        H  0.43344226  0.05830186  0.40952654     0.09600
Br521      Br  0.38755140  0.96363064  0.35833214    -0.05900
Br522      Br  0.48749084  0.85767785  0.41513207    -0.02900
Br523      Br  0.52292251  0.04035641  0.34889363     0.00000
Br524      Br  0.40179303  0.99198987  0.41972018    -0.04400
C525        C  0.52867069  0.25697350  0.64197925    -0.11800
C526        C  0.54857712  0.26797418  0.66017196     0.03700
C527        C  0.56759578  0.29817188  0.65867955    -0.12300
C528        C  0.56718610  0.31783009  0.63920716     0.18500
C529        C  0.54466625  0.30857389  0.62187631    -0.09400
C530        C  0.52543304  0.27836632  0.62341114    -0.02300
H531        H  0.58477143  0.30490707  0.67212626     0.05100
C532        C  0.59561400  0.34235149  0.63553888     0.20500
H533        H  0.51004101  0.27031122  0.60937581     0.10200
C534        C  0.62025012  0.33369125  0.61958207    -0.15700
C535        C  0.65110772  0.35145767  0.61817902     0.03200
C536        C  0.65789932  0.37868665  0.63284892    -0.11000
C537        C  0.63255591  0.38889439  0.64798488    -0.01100
C538        C  0.60158139  0.37070215  0.64954223    -0.06200
H539        H  0.61623039  0.31175033  0.60889354     0.06200
H540        H  0.63756665  0.40976566  0.65936781     0.09600
Br541      Br  0.54138063  0.33513001  0.59518667    -0.05900
Br542      Br  0.55195863  0.24168707  0.68701157    -0.02900
Br543      Br  0.68372342  0.33662678  0.59633915     0.00000
Br544      Br  0.56871163  0.38461338  0.67138835    -0.04400
C545        C  0.51805400  0.15258923  0.57070629    -0.11800
C546        C  0.49663979  0.13245865  0.55705210     0.03700
C547        C  0.50067494  0.13295833  0.53393983    -0.12300
C548        C  0.52581269  0.15335558  0.52390492     0.18500
C549        C  0.54787341  0.17283531  0.53748011    -0.09400
C550        C  0.54410908  0.17210045  0.56073204    -0.02300
H551        H  0.48365984  0.11775158  0.52366840     0.05100
C552        C  0.52666225  0.15545482  0.49925317     0.20500
H553        H  0.56073072  0.18776738  0.57097359     0.10200
C554        C  0.50683344  0.18035129  0.48865530    -0.15700
C555        C  0.50341020  0.18082627  0.46548855     0.03200
C556        C  0.51972868  0.15562804  0.45231788    -0.11000
C557        C  0.54100259  0.13170999  0.46294096    -0.01100
C558        C  0.54440214  0.13141220  0.48620220    -0.06200
H559        H  0.49342504  0.19924258  0.49853692     0.06200
H560        H  0.55412795  0.11246033  0.45321090     0.09600
Br561      Br  0.58264831  0.20144761  0.52482617    -0.05900
Br562      Br  0.46196292  0.10307325  0.56920744    -0.02900
Br563      Br  0.47708537  0.21750992  0.45296545     0.00000
Br564      Br  0.57280611  0.09731667  0.49962211    -0.04400
C565        C  0.36441360  0.67808813  0.63911996    -0.11800
C566        C  0.34154413  0.66836208  0.65611995     0.03700
C567        C  0.32171284  0.63884419  0.65377392    -0.12300
C568        C  0.32440578  0.61831517  0.63475067     0.18500
C569        C  0.34954856  0.62625002  0.61873189    -0.09400
C570        C  0.36945066  0.65595800  0.62103570    -0.02300
H571        H  0.30265592  0.63298637  0.66628371     0.05100
C572        C  0.29686066  0.59298985  0.63044667     0.20500
H573        H  0.38719631  0.66289002  0.60796277     0.10200
C574        C  0.27357809  0.59988104  0.61328341    -0.15700
C575        C  0.24280914  0.58180290  0.61160563     0.03200
C576        C  0.23488080  0.55616591  0.62720261    -0.11000
C577        C  0.25917404  0.54742725  0.64338162    -0.01100
C578        C  0.28995420  0.56580430  0.64518072    -0.06200
H579        H  0.27841935  0.62076963  0.60191417     0.06200
H580        H  0.25337411  0.52768537  0.65540041     0.09600
Br581      Br  0.35647250  0.59799887  0.59308348    -0.05900
Br582      Br  0.33573016  0.69499316  0.68267309    -0.02900
Br583      Br  0.21182467  0.59380527  0.58811750     0.00000
Br584      Br  0.32116567  0.55392888  0.66849854    -0.04400
C585        C  0.37868036  0.78215675  0.56956455    -0.11800
C586        C  0.40380731  0.79502397  0.55489162     0.03700
C587        C  0.39843666  0.79371987  0.53200484    -0.12300
C588        C  0.36830771  0.77989235  0.52321815     0.18500
C589        C  0.34259483  0.76808189  0.53770337    -0.09400
C590        C  0.34779116  0.76952064  0.56077552    -0.02300
H591        H  0.41817719  0.80316020  0.52090300     0.05100
C592        C  0.36576785  0.77664881  0.49883793     0.20500
H593        H  0.32823880  0.75957325  0.57181230     0.10200
C594        C  0.38017423  0.74789184  0.48864650    -0.15700
C595        C  0.38454873  0.74663679  0.46561032     0.03200
C596        C  0.37442127  0.77462733  0.45235471    -0.11000
C597        C  0.35811628  0.80254316  0.46247410    -0.01100
C598        C  0.35407822  0.80384282  0.48559888    -0.06200
H599        H  0.38921975  0.72685958  0.49875895     0.06200
H600        H  0.35000762  0.82410025  0.45250640     0.09600
Br601      Br  0.30075057  0.74896903  0.52658920    -0.05900
Br602      Br  0.44567235  0.81567962  0.56500008    -0.02900
Br603      Br  0.40411074  0.70584271  0.45320377     0.00000
Br604      Br  0.33442046  0.84397164  0.49863052    -0.04400
C605        C  0.43232375  0.87719226  0.63331959    -0.11800
C606        C  0.41526878  0.90051525  0.61933951     0.03700
C607        C  0.42367820  0.93525673  0.62009510    -0.12300
C608        C  0.44878900  0.94730512  0.63476301     0.18500
C609        C  0.46602785  0.92404581  0.64863992    -0.09400
C610        C  0.45795488  0.88916412  0.64769061    -0.02300
H611        H  0.41055114  0.95297695  0.60923166     0.05100
C612        C  0.45677003  0.98421449  0.63515180     0.20500
H613        H  0.47086107  0.87154068  0.65872896     0.10200
C614        C  0.43658390  0.00633069  0.64797990    -0.15700
C615        C  0.44343841  0.04149501  0.64849571     0.03200
C616        C  0.47065575  0.05492629  0.63580924    -0.11000
C617        C  0.49090065  0.03265883  0.62310684    -0.01100
C618        C  0.48406200  0.99758779  0.62263206    -0.06200
H619        H  0.41575468  0.99610841  0.65785128     0.06200
H620        H  0.51207802  0.04263158  0.61343592     0.09600
Br621      Br  0.49980792  0.93909099  0.66960976    -0.05900
Br622      Br  0.38106349  0.88599237  0.59844670    -0.02900
Br623      Br  0.41683985  0.06954657  0.66813868     0.00000
Br624      Br  0.51253831  0.96882730  0.60465168    -0.04400
C625        C  0.65771816  0.55060395  0.88392264    -0.11800
C626        C  0.63311731  0.54550818  0.86716804     0.03700
C627        C  0.60324611  0.56535886  0.86703716    -0.12300
C628        C  0.59796888  0.59067513  0.88327174     0.18500
C629        C  0.62170384  0.59408049  0.90077266    -0.09400
C630        C  0.65119099  0.57404937  0.90098267    -0.02300
H631        H  0.58537286  0.56282913  0.85336816     0.05100
C632        C  0.57162549  0.61729609  0.87986018     0.20500
H633        H  0.67029524  0.57844835  0.91374218     0.10200
C634        C  0.54470222  0.62097941  0.89516758    -0.15700
C635        C  0.52467321  0.65073278  0.89546925     0.03200
C636        C  0.53147328  0.67712337  0.88012775    -0.11000
C637        C  0.55658547  0.67203091  0.86378043    -0.01100
C638        C  0.57662175  0.64260118  0.86355748    -0.06200
H639        H  0.54085702  0.60176293  0.90785779     0.06200
H640        H  0.56195521  0.69196435  0.85179212     0.09600
Br641      Br  0.61752717  0.62882172  0.92316660    -0.05900
Br642      Br  0.64145583  0.51516327  0.84272150    -0.02900
Br643      Br  0.49172832  0.65573434  0.91886724     0.00000
Br644      Br  0.61313401  0.64033233  0.84222526    -0.04400
C645        C  0.47607754  0.77489627  0.81703397    -0.11800
C646        C  0.48947306  0.79977413  0.80235951     0.03700
C647        C  0.48027095  0.79917746  0.77983553    -0.12300
C648        C  0.45767046  0.77431848  0.77160129     0.18500
C649        C  0.44443338  0.74949492  0.78612505    -0.09400
C650        C  0.45361311  0.74994348  0.80856256    -0.02300
H651        H  0.49031283  0.81856766  0.76873736     0.05100
C652        C  0.44758068  0.77483439  0.74791735     0.20500
H653        H  0.44288961  0.73070213  0.81949658     0.10200
C654        C  0.46154791  0.75066954  0.73336315    -0.15700
C655        C  0.45170219  0.74956980  0.71101715     0.03200
C656        C  0.42743721  0.77327226  0.70279808    -0.11000
C657        C  0.41324631  0.79721595  0.71757358    -0.01100
C658        C  0.42318197  0.79817207  0.73992294    -0.06200
H659        H  0.47992151  0.73224586  0.73953064     0.06200
H660        H  0.39464722  0.81560208  0.71167584     0.09600
Br661      Br  0.41264295  0.71530895  0.77617290    -0.05900
Br662      Br  0.51806934  0.83675951  0.81219855    -0.02900
Br663      Br  0.47094547  0.71363723  0.69319752     0.00000
Br664      Br  0.40224171  0.83121617  0.75911962    -0.04400
C665        C  0.23432132  0.38103923  0.87837368    -0.11800
C666        C  0.25807765  0.38326537  0.86087617     0.03700
C667        C  0.28710251  0.36217894  0.86094880    -0.12300
C668        C  0.29240794  0.33855181  0.87821229     0.18500
C669        C  0.26964571  0.33813708  0.89638750    -0.09400
C670        C  0.24093108  0.35927382  0.89631161    -0.02300
H671        H  0.30428455  0.36253894  0.84682217     0.05100
C672        C  0.31770886  0.31069394  0.87555135     0.20500
H673        H  0.22251215  0.35719834  0.90972182     0.10200
C674        C  0.34502188  0.30759906  0.89060493    -0.15700
C675        C  0.36404207  0.27725458  0.89191180     0.03200
C676        C  0.35602751  0.24964392  0.87769291    -0.11000
C677        C  0.33053227  0.25404066  0.86149293    -0.01100
C678        C  0.31132798  0.28399350  0.86041103    -0.06200
H679        H  0.34991973  0.32789738  0.90242870     0.06200
H680        H  0.32419580  0.23326854  0.85030886     0.09600
Br681      Br  0.27412187  0.30623576  0.92044788    -0.05900
Br682      Br  0.24975130  0.41178752  0.83555740    -0.02900
Br683      Br  0.39723475  0.27361174  0.91527451     0.00000
Br684      Br  0.27397182  0.28524545  0.83967582    -0.04400
C685        C  0.47271732  0.15641533  0.70512414    -0.11800
C686        C  0.44866869  0.17946119  0.71433478     0.03700
C687        C  0.43911795  0.17662362  0.73670236    -0.12300
C688        C  0.45296653  0.15115308  0.75033889     0.18500
C689        C  0.47705024  0.12831167  0.74133071    -0.09400
C690        C  0.48686316  0.13116610  0.71897389    -0.02300
H691        H  0.42091325  0.19463702  0.74359479     0.05100
C692        C  0.44278167  0.14978842  0.77408943     0.20500
H693        H  0.50520250  0.11312239  0.71229098     0.10200
C694        C  0.41851366  0.12571080  0.78125511    -0.15700
C695        C  0.40757639  0.12480042  0.80349201     0.03200
C696        C  0.42055522  0.14882113  0.81896335    -0.11000
C697        C  0.44547158  0.17234171  0.81169616    -0.01100
C698        C  0.45661370  0.17288066  0.78959162    -0.06200
H699        H  0.40819598  0.10739823  0.76950231     0.06200
H700        H  0.45630028  0.19065278  0.82325020     0.09600
Br701      Br  0.49743407  0.09317125  0.75909493    -0.05900
Br702      Br  0.42922697  0.21661556  0.69777995    -0.02900
Br703      Br  0.37697263  0.08860011  0.81188723     0.00000
Br704      Br  0.49144277  0.20509279  0.78133526    -0.04400
C705        C  0.42342549  0.05175469  0.89148535    -0.11800
C706        C  0.40294105  0.02752832  0.90269740     0.03700
C707        C  0.41137124  0.99290434  0.90178641    -0.12300
C708        C  0.44006734  0.98190556  0.88988550     0.18500
C709        C  0.46103959  0.00604820  0.87910501    -0.09400
C710        C  0.45274083  0.04079300  0.88008262    -0.02300
H711        H  0.39553236  0.97446116  0.91042096     0.05100
C712        C  0.44792265  0.94512745  0.88932505     0.20500
H713        H  0.46844390  0.05909531  0.87122522     0.10200
C714        C  0.43029130  0.92374206  0.87447892    -0.15700
C715        C  0.43727778  0.88866674  0.87368124     0.03200
C716        C  0.46208766  0.87475234  0.88801416    -0.11000
C717        C  0.47942236  0.89621315  0.90295080    -0.01100
C718        C  0.47234849  0.93112114  0.90379873    -0.06200
H719        H  0.41146990  0.93448248  0.86327261     0.06200
H720        H  0.49865721  0.88574252  0.91397577     0.09600
Br721      Br  0.50041230  0.99250620  0.86224804    -0.05900
Br722      Br  0.36393762  0.04036875  0.92020848    -0.02900
Br723      Br  0.41443565  0.86144287  0.85165446     0.00000
Br724      Br  0.49647375  0.95874639  0.92500971    -0.04400
C725        C  0.65888732  0.54146744  0.13577946    -0.11800
C726        C  0.63375804  0.53467337  0.11949600     0.03700
C727        C  0.60292716  0.55311835  0.11962661    -0.12300
C728        C  0.59689022  0.57859055  0.13564732     0.18500
C729        C  0.62104488  0.58349752  0.15275618    -0.09400
C730        C  0.65154200  0.56501268  0.15269547    -0.02300
H731        H  0.58462620  0.54921995  0.10633789     0.05100
C732        C  0.56879712  0.60365487  0.13256378     0.20500
H733        H  0.67048996  0.57037852  0.16538640     0.10200
C734        C  0.54337579  0.60728173  0.14897101    -0.15700
C735        C  0.52266539  0.63655936  0.14968615     0.03200
C736        C  0.52704932  0.66232995  0.13364869    -0.11000
C737        C  0.55018963  0.65719850  0.11618471    -0.01100
C738        C  0.57088951  0.62817821  0.11545237    -0.06200
H739        H  0.54149441  0.58862638  0.16220918     0.06200
H740        H  0.55364374  0.67692085  0.10374298     0.09600
Br741      Br  0.61572076  0.61792883  0.17525326    -0.05900
Br742      Br  0.64189896  0.50402462  0.09516401    -0.02900
Br743      Br  0.49196254  0.64232969  0.17424757     0.00000
Br744      Br  0.60439271  0.62563890  0.09215712    -0.04400
C745        C  0.46762836  0.75829866  0.20442155    -0.11800
C746        C  0.43982570  0.77832265  0.21175848     0.03700
C747        C  0.43126430  0.77919962  0.23430978    -0.12300
C748        C  0.44972654  0.76009632  0.24989880     0.18500
C749        C  0.47693718  0.73929060  0.24251909    -0.09400
C750        C  0.48607694  0.73901529  0.21996818    -0.02300
H751        H  0.41021027  0.79520625  0.23977892     0.05100
C752        C  0.44006114  0.76250054  0.27369368     0.20500
H753        H  0.50709811  0.72300732  0.21445945     0.10200
C754        C  0.40806971  0.75001807  0.28064243    -0.15700
C755        C  0.39775548  0.75263048  0.30290174     0.03200
C756        C  0.41969059  0.76796610  0.31865478    -0.11000
C757        C  0.45156351  0.78064233  0.31161415    -0.01100
C758        C  0.46161273  0.77848701  0.28934070    -0.06200
H759        H  0.39119057  0.73792757  0.26871706     0.06200
H760        H  0.46852703  0.79283355  0.32345318     0.09600
Br761      Br  0.50104292  0.70955306  0.26241040    -0.05900
Br762      Br  0.41367112  0.80630099  0.19183114    -0.02900
Br763      Br  0.35454160  0.73288390  0.31107206     0.00000
Br764      Br  0.50420342  0.79931992  0.28091966    -0.04400
C765        C  0.50790724  0.77793773  0.95264572    -0.11800
C766        C  0.48212667  0.79169278  0.96646285     0.03700
C767        C  0.48572597  0.79050236  0.98957320    -0.12300
C768        C  0.51469599  0.77580634  0.99934979     0.18500
C769        C  0.54089624  0.76295006  0.98566058    -0.09400
C770        C  0.53751893  0.76436327  0.96247556    -0.02300
H771        H  0.46553482  0.80066614  0.00002699     0.05100
C772        C  0.51571841  0.77214045  0.02380576     0.20500
H773        H  0.55758534  0.75378149  0.95210866     0.10200
C774        C  0.50306369  0.74200912  0.03332337    -0.15700
C775        C  0.50013584  0.73872343  0.05638113     0.03200
C776        C  0.51003734  0.76596351  0.07039463    -0.11000
C777        C  0.52415509  0.79557753  0.06087823    -0.01100
C778        C  0.52673004  0.79892424  0.03772704    -0.06200
H779        H  0.49475870  0.72119002  0.02271056     0.06200
H780        H  0.53187731  0.81669910  0.07141496     0.09600
Br781      Br  0.58117571  0.74255077  0.99801844    -0.05900
Br782      Br  0.44203288  0.81359553  0.95476830    -0.02900
Br783      Br  0.48321634  0.69610127  0.06782447     0.00000
Br784      Br  0.54428117  0.84079404  0.02571408    -0.04400
C785        C  0.36300805  0.24098285  0.13161008    -0.11800
C786        C  0.36829467  0.26721727  0.14722930     0.03700
C787        C  0.34776710  0.29662601  0.14655162    -0.12300
C788        C  0.32182774  0.30000517  0.13048443     0.18500
C789        C  0.31863013  0.27488372  0.11381983    -0.09400
C790        C  0.33907583  0.24568555  0.11454816    -0.02300
H791        H  0.35037521  0.31569945  0.15948081     0.05100
C792        C  0.29450631  0.32587481  0.13342831     0.20500
H793        H  0.33471089  0.22548474  0.10254754     0.10200
C794        C  0.29004260  0.35195478  0.11765344    -0.15700
C795        C  0.26024939  0.37201107  0.11757180     0.03200
C796        C  0.23454075  0.36619712  0.13362161    -0.11000
C797        C  0.24012726  0.34146632  0.15010995    -0.01100
C798        C  0.26962708  0.32139724  0.15011616    -0.06200
H799        H  0.30879659  0.35528382  0.10457319     0.06200
H800        H  0.22064460  0.33663685  0.16254131     0.09600
Br801      Br  0.28385679  0.27703855  0.09131552    -0.05900
Br802      Br  0.40032708  0.26204593  0.17111126    -0.02900
Br803      Br  0.25414525  0.40366955  0.09358629     0.00000
Br804      Br  0.27284406  0.28571856  0.17192079    -0.04400
C805        C  0.42415247  0.15078174  0.20370176    -0.11800
C806        C  0.40246386  0.16215756  0.22099460     0.03700
C807        C  0.41450756  0.16320300  0.24301581    -0.12300
C808        C  0.44804957  0.15315508  0.24832134     0.18500
C809        C  0.46956652  0.14156833  0.23113423    -0.09400
C810        C  0.45773347  0.14083022  0.20914581    -0.02300
H811        H  0.39765800  0.17205917  0.25607640     0.05100
C812        C  0.45961910  0.15345665  0.27193275     0.20500
H813        H  0.47471830  0.13158499  0.19627157     0.10200
C814        C  0.44557224  0.12969962  0.28682906    -0.15700
C815        C  0.45578536  0.12897023  0.30915124     0.03200
C816        C  0.48075519  0.15209647  0.31700164    -0.11000
C817        C  0.49504490  0.17576664  0.30212863    -0.01100
C818        C  0.48438435  0.17686819  0.27982292    -0.06200
H819        H  0.42653309  0.11153394  0.28102854     0.06200
H820        H  0.51367622  0.19424411  0.30806314     0.09600
Br821      Br  0.51474903  0.12470602  0.23703934    -0.05900
Br822      Br  0.35689736  0.17830440  0.21551431    -0.02900
Br823      Br  0.43541092  0.09537533  0.32828250     0.00000
Br824      Br  0.50277353  0.21202275  0.26107962    -0.04400
C825        C  0.37131061  0.13151169  0.07082521    -0.11800
C826        C  0.39276514  0.11278631  0.05646418     0.03700
C827        C  0.38852524  0.11518252  0.03342161    -0.12300
C828        C  0.36322167  0.13627104  0.02419262     0.18500
C829        C  0.34019475  0.15309306  0.03853561    -0.09400
C830        C  0.34429152  0.15052992  0.06168427    -0.02300
H831        H  0.40601403  0.10159489  0.02258187     0.05100
C832        C  0.36391625  0.14289298  0.99984067     0.20500
H833        H  0.32755327  0.16502787  0.07251803     0.10200
C834        C  0.33851918  0.12944157  0.98582103    -0.15700
C835        C  0.34065026  0.13313437  0.96257898     0.03200
C836        C  0.36905226  0.15030292  0.95290974    -0.11000
C837        C  0.39349160  0.16492831  0.96729847    -0.01100
C838        C  0.39110169  0.16143121  0.99035337    -0.06200
H839        H  0.31732214  0.11537067  0.99296670     0.06200
H840        H  0.41514925  0.17884222  0.96063418     0.09600
Br841      Br  0.30465211  0.18198798  0.02726885    -0.05900
Br842      Br  0.42835594  0.08364698  0.06755771    -0.02900
Br843      Br  0.30434821  0.11308015  0.94544276     0.00000
Br844      Br  0.42584331  0.18258628  0.00829587    -0.04400
C845        C  0.42197550  0.03924961  0.13876029    -0.11800
C846        C  0.45516709  0.02636823  0.13421403     0.03700
C847        C  0.46085898  0.99100451  0.13408779    -0.12300
C848        C  0.43424911  0.96786434  0.13839048     0.18500
C849        C  0.40147436  0.98042016  0.14330056    -0.09400
C850        C  0.39555315  0.01562498  0.14333245    -0.02300
H851        H  0.48629231  0.98142517  0.13062413     0.05100
C852        C  0.44167512  0.93080640  0.13864868     0.20500
H853        H  0.36995047  0.02441952  0.14706888     0.10200
C854        C  0.46116628  0.91746661  0.15612917    -0.15700
C855        C  0.46976100  0.88281408  0.15670723     0.03200
C856        C  0.45885181  0.86080933  0.13948691    -0.11000
C857        C  0.43860372  0.87401953  0.12226335    -0.01100
C858        C  0.43025556  0.90881549  0.12162620    -0.06200
H859        H  0.46973148  0.93413823  0.16938905     0.06200
H860        H  0.43029919  0.85750013  0.10885953     0.09600
Br861      Br  0.36425645  0.95051547  0.15087567    -0.05900
Br862      Br  0.49429821  0.05474748  0.12829280    -0.02900
Br863      Br  0.49517489  0.86677589  0.18193810     0.00000
Br864      Br  0.40480295  0.92549426  0.09664361    -0.04400
loop_ 
_geom_bond_atom_site_label_1 
_geom_bond_atom_site_label_2 
_geom_bond_distance 
_geom_bond_site_symmetry_2 
_ccdc_geom_bond_type 
O1           Cu9   2.035       .  S
O1           C11   1.280       .  A
O2           Cu9   2.025       .  S
O2           C12   1.279       .  A
O3           Cu9   2.006       .  S
O3           C13   1.277       .  A
O4           Cu9   2.011       .  S
O4           C14   1.278       .  A
O5          Cu10   2.042       .  S
O5           C14   1.282       .  A
O6          Cu10   2.037       .  S
O6           C13   1.280       .  A
O7          Cu10   1.997       .  S
O7           C12   1.277       .  A
O8          Cu10   1.987       .  S
O8           C11   1.274       .  A
Cu9         Cu10   2.369       .  S
C11         C785   1.471       .  S
C12         C845   1.494       .  S
C13         C825   1.482       .  S
C14         C805   1.493       .  S
O15         Cu23   2.030       .  S
O15          C25   1.280       .  A
O16         Cu23   2.030       .  S
O16          C26   1.280       .  A
O17         Cu23   1.994       .  S
O17          C27   1.275       .  A
O18         Cu23   1.993       .  S
O18          C28   1.276       .  A
O19         Cu24   2.031       .  S
O19          C28   1.279       .  A
O20         Cu24   2.028       .  S
O20          C27   1.280       .  A
O21         Cu24   1.998       .  S
O21          C26   1.276       .  A
O22         Cu24   2.001       .  S
O22          C25   1.276       .  A
Cu23        Cu24   2.373       .  S
C25         C745   1.477       .  S
C26         C776   1.479       .  S
C27         C856   1.477       .  S
C28         C736   1.472       .  S
O29         Cu37   1.981       .  S
O29          C39   1.273       .  A
O30         Cu37   1.988       .  S
O30          C40   1.276       .  A
O31         Cu37   2.036       .  S
O31          C41   1.281       .  A
O32         Cu37   2.038       .  S
O32          C42   1.280       .  A
O33         Cu38   2.006       .  S
O33          C42   1.279       .  A
O34         Cu38   2.005       .  S
O34          C41   1.277       .  A
O35         Cu38   2.032       .  S
O35          C40   1.280       .  A
O36         Cu38   2.027       .  S
O36          C39   1.280       .  A
Cu37        Cu38   2.367       .  S
C39         C705   1.471       .  S
C40         C676   1.482       .  S
C41         C696   1.491       .  S
C42         C836   1.500       .  S
O43         Cu51   1.982       .  S
O43          C53   1.274       .  A
O44         Cu51   1.983       .  S
O44          C54   1.275       .  A
O45         Cu51   2.027       .  S
O45          C55   1.280       .  A
O46         Cu51   2.028       .  S
O46          C56   1.280       .  A
O47         Cu52   2.002       .  S
O47          C56   1.276       .  A
O48         Cu52   1.998       .  S
O48          C55   1.277       .  A
O49         Cu52   2.033       .  S
O49          C54   1.280       .  A
O50         Cu52   2.027       .  S
O50          C53   1.280       .  A
Cu51        Cu52   2.371       .  S
C53         C716   1.469       .  S
C54         C636   1.478       .  S
C55         C645   1.484       .  S
C56         C765   1.480       .  S
O57         Cu65   1.990       .  S
O57          C67   1.275       .  A
O58         Cu65   1.993       .  S
O58          C68   1.275       .  A
O59         Cu65   2.031       .  S
O59          C69   1.280       .  A
O60         Cu65   2.030       .  S
O60          C70   1.282       .  A
O61         Cu66   1.993       .  S
O61          C70   1.275       .  A
O62         Cu66   1.991       .  S
O62          C69   1.275       .  A
O63         Cu66   2.031       .  S
O63          C68   1.280       .  A
O64         Cu66   2.034       .  S
O64          C67   1.280       .  A
Cu65        Cu66   2.371       .  S
C67         C565   1.478       .  S
C68         C605   1.473       .  S
C69         C585   1.478       .  S
C70         C656   1.485       .  S
O71         Cu79   2.007       .  S
O71          C81   1.277       .  A
O72         Cu79   2.004       .  S
O72          C82   1.276       .  A
O73         Cu79   2.033       .  S
O73          C83   1.280       .  A
O74         Cu79   2.025       .  S
O74          C84   1.280       .  A
O75         Cu80   1.993       .  S
O75          C84   1.275       .  A
O76         Cu80   1.991       .  S
O76          C83   1.275       .  A
O77         Cu80   2.036       .  S
O77          C82   1.282       .  A
O78         Cu80   2.041       .  S
O78          C81   1.281       .  A
Cu79        Cu80   2.370       .  S
C81         C545   1.484       .  S
C82         C685   1.489       .  S
C83         C525   1.475       .  S
C84         C616   1.474       .  S
O85         Cu93   2.032       .  S
O85          C95   1.280       .  A
O86         Cu93   2.030       .  S
O86          C96   1.280       .  A
O87         Cu93   2.000       .  S
O87          C97   1.276       .  A
O88         Cu93   1.999       .  S
O88          C98   1.276       .  A
O89         Cu94   2.022       .  S
O89          C98   1.279       .  A
O90         Cu94   2.029       .  S
O90          C97   1.280       .  A
O91         Cu94   1.984       .  S
O91          C96   1.275       .  A
O92         Cu94   1.992       .  S
O92          C95   1.276       .  A
Cu93        Cu94   2.371       .  S
C95         C505   1.490       .  S
C96         C485   1.471       .  S
C97         C756   1.480       .  S
C98         C596   1.477       .  S
O99        Cu107   2.033       .  S
O99         C109   1.280       .  A
O100       Cu107   2.030       .  S
O100        C110   1.281       .  A
O101       Cu107   2.003       .  S
O101        C111   1.276       .  A
O102       Cu107   2.003       .  S
O102        C112   1.276       .  A
O103       Cu108   2.046       .  S
O103        C112   1.282       .  A
O104       Cu108   2.043       .  S
O104        C111   1.282       .  A
O105       Cu108   1.991       .  S
O105        C110   1.274       .  A
O106       Cu108   1.984       .  S
O106        C109   1.274       .  A
Cu107      Cu108   2.371       .  S
C109        C465   1.470       .  S
C110        C516   1.482       .  S
C111        C556   1.491       .  S
C112        C816   1.482       .  S
O113       Cu121   1.990       .  S
O113        C123   1.275       .  A
O114       Cu121   1.990       .  S
O114        C124   1.276       .  A
O115       Cu121   2.036       .  S
O115        C125   1.281       .  A
O116       Cu121   2.031       .  S
O116        C126   1.280       .  A
O117       Cu122   1.990       .  S
O117        C126   1.274       .  A
O118       Cu122   1.991       .  S
O118        C125   1.276       .  A
O119       Cu122   2.037       .  S
O119        C124   1.281       .  A
O120       Cu122   2.035       .  S
O120        C123   1.281       .  A
Cu121      Cu122   2.370       .  S
C123        C436   1.480       .  S
C124        C405   1.489       .  S
C125        C796   1.481       .  S
C126        C445   1.472       .  S
O127       Cu135   1.999       .  S
O127        C137   1.277       .  A
O128       Cu135   2.005       .  S
O128        C138   1.276       .  A
O129       Cu135   2.030       .  S
O129        C139   1.280       .  A
O130       Cu135   2.029       .  S
O130        C140   1.280       .  A
O131       Cu136   1.995       .  S
O131        C140   1.276       .  A
O132       Cu136   1.995       .  S
O132        C139   1.277       .  A
O133       Cu136   2.020       .  S
O133        C138   1.280       .  A
O134       Cu136   2.020       .  S
O134        C137   1.279       .  A
Cu135      Cu136   2.369       .  S
C137        C396   1.483       .  S
C138        C376   1.486       .  S
C139        C725   1.480       .  S
C140        C456   1.484       .  S
O141       Cu149   2.029       .  S
O141        C151   1.280       .  A
O142       Cu149   2.027       .  S
O142        C152   1.279       .  A
O143       Cu149   2.005       .  S
O143        C153   1.277       .  A
O144       Cu149   2.002       .  S
O144        C154   1.277       .  A
O145       Cu150   2.027       .  S
O145        C154   1.280       .  A
O146       Cu150   2.029       .  S
O146        C153   1.280       .  A
O147       Cu150   1.990       .  S
O147        C152   1.275       .  A
O148       Cu150   1.983       .  S
O148        C151   1.275       .  A
Cu149      Cu150   2.372       .  S
C151        C356   1.479       .  S
C152        C665   1.468       .  S
C153        C325   1.488       .  S
C154        C425   1.481       .  S
O155       Cu163   2.023       .  S
O155        C165   1.280       .  A
O156       Cu163   2.030       .  S
O156        C166   1.279       .  A
O157       Cu163   1.999       .  S
O157        C167   1.277       .  A
O158       Cu163   1.998       .  S
O158        C168   1.276       .  A
O159       Cu164   2.022       .  S
O159        C168   1.279       .  A
O160       Cu164   2.026       .  S
O160        C167   1.279       .  A
O161       Cu164   1.984       .  S
O161        C166   1.274       .  A
O162       Cu164   1.990       .  S
O162        C165   1.275       .  A
Cu163      Cu164   2.372       .  S
C165        C345   1.478       .  S
C166        C625   1.468       .  S
C167        C316   1.491       .  S
C168        C385   1.473       .  S
O169       Cu177   2.033       .  S
O169        C179   1.280       .  A
O170       Cu177   2.034       .  S
O170        C180   1.281       .  A
O171       Cu177   1.991       .  S
O171        C181   1.275       .  A
O172       Cu177   1.991       .  S
O172        C182   1.276       .  A
O173       Cu178   2.039       .  S
O173        C182   1.282       .  A
O174       Cu178   2.038       .  S
O174        C181   1.281       .  A
O175       Cu178   1.990       .  S
O175        C180   1.276       .  A
O176       Cu178   1.987       .  S
O176        C179   1.275       .  A
Cu177      Cu178   2.368       .  S
C179        C536   1.472       .  S
C180        C285   1.490       .  S
C181        C265   1.483       .  S
C182        C305   1.492       .  S
O183       Cu191   2.031       .  S
O183        C193   1.279       .  A
O184       Cu191   2.033       .  S
O184        C194   1.281       .  A
O185       Cu191   1.997       .  S
O185        C195   1.276       .  A
O186       Cu191   1.998       .  S
O186        C196   1.277       .  A
O187       Cu192   2.035       .  S
O187        C196   1.280       .  A
O188       Cu192   2.029       .  S
O188        C195   1.280       .  A
O189       Cu192   1.989       .  S
O189        C194   1.274       .  A
O190       Cu192   1.996       .  S
O190        C193   1.276       .  A
Cu191      Cu192   2.369       .  S
C193        C576   1.474       .  S
C194        C296   1.478       .  S
C195        C245   1.479       .  S
C196        C336   1.498       .  S
O197       Cu205   1.985       .  S
O197        C207   1.274       .  A
O198       Cu205   1.988       .  S
O198        C208   1.275       .  A
O199       Cu205   2.023       .  S
O199        C209   1.280       .  A
O200       Cu205   2.028       .  S
O200        C210   1.280       .  A
O201       Cu206   2.004       .  S
O201        C210   1.277       .  A
O202       Cu206   2.004       .  S
O202        C209   1.277       .  A
O203       Cu206   2.026       .  S
O203        C208   1.279       .  A
O204       Cu206   2.025       .  S
O204        C207   1.280       .  A
Cu205      Cu206   2.372       .  S
C207        C225   1.468       .  S
C208        C476   1.472       .  S
C209        C365   1.480       .  S
C210        C276   1.485       .  S
O211       Cu219   1.986       .  S
O211        C221   1.275       .  A
O212       Cu219   1.986       .  S
O212        C222   1.275       .  A
O213       Cu219   2.028       .  S
O213        C223   1.280       .  A
O214       Cu219   2.028       .  S
O214        C224   1.280       .  A
O215       Cu220   2.000       .  S
O215        C224   1.276       .  A
O216       Cu220   1.995       .  S
O216        C223   1.275       .  A
O217       Cu220   2.028       .  S
O217        C222   1.280       .  A
O218       Cu220   2.032       .  S
O218        C221   1.280       .  A
Cu219      Cu220   2.371       .  S
C221        C496   1.475       .  S
C222        C236   1.477       .  S
C223        C256   1.474       .  S
C224        C416   1.479       .  S
C225        C226   1.409       .  A
C225        C230   1.402       .  A
C226        C227   1.397       .  A
C226       Br242   1.920       .  S
C227        C228   1.400       .  A
C227        H231   1.084       .  S
C228        C232   1.475       .  S
C228        C229   1.409       .  A
C229        C230   1.399       .  A
C229       Br241   1.918       .  S
C230        H233   1.084       .  S
C232        C234   1.404       .  A
C232        C238   1.404       .  A
C234        C235   1.402   1_655  A
C234        H239   1.083       .  S
C235        C236   1.411       .  A
C235       Br243   1.919       .  S
C236        C237   1.406       .  A
C237        C238   1.395   1_455  A
C237        H240   1.084       .  S
C238       Br244   1.919       .  S
C245        C246   1.411       .  A
C245        C250   1.405       .  A
C246        C247   1.403       .  A
C246       Br262   1.919       .  S
C247        C248   1.404       .  A
C247        H251   1.084       .  S
C248        C252   1.480       .  S
C248        C249   1.407       .  A
C249        C250   1.398       .  A
C249       Br261   1.920       .  S
C250        H253   1.084       .  S
C252        C254   1.405       .  A
C252        C258   1.408       .  A
C254        C255   1.403       .  A
C254        H259   1.084       .  S
C255        C256   1.409       .  A
C255       Br263   1.919       .  S
C256        C257   1.403       .  A
C257        C258   1.398       .  A
C257        H260   1.084       .  S
C258       Br264   1.919       .  S
C265        C266   1.415       .  A
C265        C270   1.406       .  A
C266        C267   1.396       .  A
C266       Br282   1.923       .  S
C267        C268   1.400       .  A
C267        H271   1.085       .  S
C268        C272   1.482       .  S
C268        C269   1.410       .  A
C269        C270   1.406       .  A
C269       Br281   1.917       .  S
C270        H273   1.085       .  S
C272        C274   1.400       .  A
C272        C278   1.408       .  A
C274        C275   1.397       .  A
C274        H279   1.084       .  S
C275        C276   1.414       .  A
C275       Br283   1.922       .  S
C276        C277   1.408       .  A
C277        C278   1.406       .  A
C277        H280   1.083       .  S
C278       Br284   1.917       .  S
C285        C286   1.417       .  A
C285        C290   1.410       .  A
C286        C287   1.403       .  A
C286       Br302   1.920       .  S
C287        C288   1.402       .  A
C287        H291   1.084       .  S
C288        C292   1.477       .  S
C288        C289   1.403       .  A
C289        C290   1.397       .  A
C289       Br301   1.919       .  S
C290        H293   1.083       .  S
C292        C294   1.400       .  A
C292        C298   1.408       .  A
C294        C295   1.398   1_655  A
C294        H299   1.083       .  S
C295        C296   1.413       .  A
C295       Br303   1.922       .  S
C296        C297   1.404       .  A
C297        C298   1.402   1_455  A
C297        H300   1.083       .  S
C298       Br304   1.917       .  S
C305        C306   1.416       .  A
C305        C310   1.411       .  A
C306        C307   1.403       .  A
C306       Br322   1.920       .  S
C307        C308   1.403       .  A
C307        H311   1.084       .  S
C308        C312   1.482       .  S
C308        C309   1.404       .  A
C309        C310   1.398       .  A
C309       Br321   1.919       .  S
C310        H313   1.084       .  S
C312        C314   1.402       .  A
C312        C318   1.404       .  A
C314        C315   1.403       .  A
C314        H319   1.084       .  S
C315        C316   1.418       .  A
C315       Br323   1.920       .  S
C316        C317   1.410       .  A
C317        C318   1.398       .  A
C317        H320   1.083       .  S
C318       Br324   1.919       .  S
C325        C326   1.415       .  A
C325        C330   1.407       .  A
C326        C327   1.403       .  A
C326       Br342   1.920       .  S
C327        C328   1.405       .  A
C327        H331   1.083       .  S
C328        C332   1.489       .  S
C328        C329   1.409       .  A
C329        C330   1.401       .  A
C329       Br341   1.919       .  S
C330        H333   1.083       .  S
C332        C334   1.405       .  A
C332        C338   1.406       .  A
C334        C335   1.406       .  A
C334        H339   1.083       .  S
C335        C336   1.419       .  A
C335       Br343   1.921       .  S
C336        C337   1.411       .  A
C337        C338   1.398       .  A
C337        H340   1.083       .  S
C338       Br344   1.920       .  S
C345        C346   1.414       .  A
C345        C350   1.405       .  A
C346        C347   1.397       .  A
C346       Br362   1.920       .  S
C347        C348   1.399       .  A
C347        H351   1.084       .  S
C348        C352   1.473       .  S
C348        C349   1.406       .  A
C349        C350   1.400       .  A
C349       Br361   1.918       .  S
C350        H353   1.083       .  S
C352        C354   1.402       .  A
C352        C358   1.403       .  A
C354        C355   1.402   1_655  A
C354        H359   1.083       .  S
C355        C356   1.413       .  A
C355       Br363   1.919       .  S
C356        C357   1.407       .  A
C357        C358   1.395   1_455  A
C357        H360   1.084       .  S
C358       Br364   1.919       .  S
C365        C366   1.412       .  A
C365        C370   1.405       .  A
C366        C367   1.401       .  A
C366       Br382   1.920       .  S
C367        C368   1.403       .  A
C367        H371   1.083       .  S
C368        C372   1.481       .  S
C368        C369   1.408       .  A
C369        C370   1.400       .  A
C369       Br381   1.919       .  S
C370        H373   1.083       .  S
C372        C374   1.401       .  A
C372        C378   1.407       .  A
C374        C375   1.400       .  A
C374        H379   1.083       .  S
C375        C376   1.417       .  A
C375       Br383   1.921       .  S
C376        C377   1.407       .  A
C377        C378   1.401       .  A
C377        H380   1.083       .  S
C378       Br384   1.918       .  S
C385        C386   1.410       .  A
C385        C390   1.404       .  A
C386        C387   1.397       .  A
C386       Br402   1.920       .  S
C387        C388   1.401       .  A
C387        H391   1.084       .  S
C388        C392   1.476   1_556  S
C388        C389   1.407       .  A
C389        C390   1.402       .  A
C389       Br401   1.917       .  S
C390        H393   1.083       .  S
C392        C394   1.401       .  A
C392        C398   1.405       .  A
C394        C395   1.403       .  A
C394        H399   1.084       .  S
C395        C396   1.416       .  A
C395       Br403   1.920       .  S
C396        C397   1.406       .  A
C397        C398   1.396       .  A
C397        H400   1.084       .  S
C398       Br404   1.919       .  S
C405        C406   1.415       .  A
C405        C410   1.408       .  A
C406        C407   1.404       .  A
C406       Br422   1.919       .  S
C407        C408   1.405       .  A
C407        H411   1.084       .  S
C408        C412   1.484       .  S
C408        C409   1.406       .  A
C409        C410   1.397       .  A
C409       Br421   1.920       .  S
C410        H413   1.084       .  S
C412        C414   1.403       .  A
C412        C418   1.410       .  A
C414        C415   1.399       .  A
C414        H419   1.083       .  S
C415        C416   1.411       .  A
C415       Br423   1.920       .  S
C416        C417   1.404       .  A
C417        C418   1.402       .  A
C417        H420   1.083       .  S
C418       Br424   1.919       .  S
C425        C426   1.413       .  A
C425        C430   1.405       .  A
C426        C427   1.404       .  A
C426       Br442   1.919       .  S
C427        C428   1.403       .  A
C427        H431   1.084       .  S
C428        C432   1.479   1_556  S
C428        C429   1.406       .  A
C429        C430   1.397       .  A
C429       Br441   1.919       .  S
C430        H433   1.084       .  S
C432        C434   1.404       .  A
C432        C438   1.406       .  A
C434        C435   1.405       .  A
C434        H439   1.084       .  S
C435        C436   1.411       .  A
C435       Br443   1.918       .  S
C436        C437   1.405       .  A
C437        C438   1.396       .  A
C437        H440   1.084       .  S
C438       Br444   1.920       .  S
C445        C446   1.410       .  A
C445        C450   1.402       .  A
C446        C447   1.399   1_455  A
C446       Br462   1.920       .  S
C447        C448   1.401       .  A
C447        H451   1.083       .  S
C448        C452   1.479       .  S
C448        C449   1.410       .  A
C449        C450   1.401   1_655  A
C449       Br461   1.918       .  S
C450        H453   1.083       .  S
C452        C454   1.403       .  A
C452        C458   1.405       .  A
C454        C455   1.402       .  A
C454        H459   1.083       .  S
C455        C456   1.413       .  A
C455       Br463   1.920       .  S
C456        C457   1.408       .  A
C457        C458   1.398       .  A
C457        H460   1.083       .  S
C458       Br464   1.919       .  S
C465        C466   1.408       .  A
C465        C470   1.402       .  A
C466        C467   1.394       .  A
C466       Br482   1.921       .  S
C467        C468   1.402       .  A
C467        H471   1.084       .  S
C468        C472   1.482       .  S
C468        C469   1.411       .  A
C469        C470   1.404       .  A
C469       Br481   1.917       .  S
C470        H473   1.084       .  S
C472        C474   1.403       .  A
C472        C478   1.411       .  A
C474        C475   1.396       .  A
C474        H479   1.083       .  S
C475        C476   1.409       .  A
C475       Br483   1.921       .  S
C476        C477   1.402       .  A
C477        C478   1.401       .  A
C477        H480   1.083       .  S
C478       Br484   1.918       .  S
C485        C486   1.407       .  A
C485        C490   1.401       .  A
C486        C487   1.404       .  A
C486       Br502   1.917       .  S
C487        C488   1.407       .  A
C487        H491   1.083       .  S
C488        C492   1.482       .  S
C488        C489   1.410       .  A
C489        C490   1.394       .  A
C489       Br501   1.922       .  S
C490        H493   1.084       .  S
C492        C494   1.406       .  A
C492        C498   1.409       .  A
C494        C495   1.403       .  A
C494        H499   1.084       .  S
C495        C496   1.410       .  A
C495       Br503   1.919       .  S
C496        C497   1.402       .  A
C497        C498   1.395       .  A
C497        H500   1.084       .  S
C498       Br504   1.921       .  S
C505        C506   1.417       .  A
C505        C510   1.410       .  A
C506        C507   1.404       .  A
C506       Br522   1.920       .  S
C507        C508   1.402       .  A
C507        H511   1.083       .  S
C508        C512   1.478       .  S
C508        C509   1.404       .  A
C509        C510   1.396       .  A
C509       Br521   1.919       .  S
C510        H513   1.083       .  S
C512        C514   1.399       .  A
C512        C518   1.408   1_565  A
C514        C515   1.399   1_565  A
C514        H519   1.083       .  S
C515        C516   1.416       .  A
C515       Br523   1.922       .  S
C516        C517   1.405       .  A
C517        C518   1.401       .  A
C517        H520   1.083       .  S
C518       Br524   1.918   1_545  S
C525        C526   1.410       .  A
C525        C530   1.403       .  A
C526        C527   1.398       .  A
C526       Br542   1.921       .  S
C527        C528   1.403       .  A
C527        H531   1.083       .  S
C528        C532   1.483       .  S
C528        C529   1.411       .  A
C529        C530   1.402       .  A
C529       Br541   1.918       .  S
C530        H533   1.083       .  S
C532        C534   1.402       .  A
C532        C538   1.412       .  A
C534        C535   1.393       .  A
C534        H539   1.084       .  S
C535        C536   1.408       .  A
C535       Br543   1.921       .  S
C536        C537   1.404       .  A
C537        C538   1.406       .  A
C537        H540   1.083       .  S
C538       Br544   1.917       .  S
C545        C546   1.412       .  A
C545        C550   1.406       .  A
C546        C547   1.400       .  A
C546       Br562   1.920       .  S
C547        C548   1.401       .  A
C547        H551   1.084       .  S
C548        C552   1.486       .  S
C548        C549   1.410       .  A
C549        C550   1.408       .  A
C549       Br561   1.917       .  S
C550        H553   1.084       .  S
C552        C554   1.400       .  A
C552        C558   1.409       .  A
C554        C555   1.401       .  A
C554        H559   1.084       .  S
C555        C556   1.417       .  A
C555       Br563   1.922       .  S
C556        C557   1.407       .  A
C557        C558   1.406       .  A
C557        H560   1.084       .  S
C558       Br564   1.916       .  S
C565        C566   1.410       .  A
C565        C570   1.405       .  A
C566        C567   1.397       .  A
C566       Br582   1.921       .  S
C567        C568   1.402       .  A
C567        H571   1.083       .  S
C568        C572   1.484       .  S
C568        C569   1.411       .  A
C569        C570   1.404       .  A
C569       Br581   1.918       .  S
C570        H573   1.083       .  S
C572        C574   1.403       .  A
C572        C578   1.411       .  A
C574        C575   1.397       .  A
C574        H579   1.083       .  S
C575        C576   1.408       .  A
C575       Br583   1.921       .  S
C576        C577   1.403       .  A
C577        C578   1.404       .  A
C577        H580   1.082       .  S
C578       Br584   1.917       .  S
C585        C586   1.413       .  A
C585        C590   1.406       .  A
C586        C587   1.394       .  A
C586       Br602   1.922       .  S
C587        C588   1.398       .  A
C587        H591   1.085       .  S
C588        C592   1.476       .  S
C588        C589   1.408       .  A
C589        C590   1.405       .  A
C589       Br601   1.917       .  S
C590        H593   1.084       .  S
C592        C594   1.400       .  A
C592        C598   1.407       .  A
C594        C595   1.398       .  A
C594        H599   1.084       .  S
C595        C596   1.413       .  A
C595       Br603   1.922       .  S
C596        C597   1.404       .  A
C597        C598   1.402       .  A
C597        H600   1.083       .  S
C598       Br604   1.917       .  S
C605        C606   1.410       .  A
C605        C610   1.403       .  A
C606        C607   1.399       .  A
C606       Br622   1.920       .  S
C607        C608   1.401       .  A
C607        H611   1.083       .  S
C608        C612   1.477       .  S
C608        C609   1.408       .  A
C609        C610   1.401       .  A
C609       Br621   1.918       .  S
C610        H613   1.083       .  S
C612        C614   1.403   1_565  A
C612        C618   1.406       .  A
C614        C615   1.402       .  A
C614        H619   1.084   1_545  S
C615        C616   1.410       .  A
C615       Br623   1.920       .  S
C616        C617   1.404       .  A
C617        C618   1.398   1_545  A
C617        H620   1.084       .  S
C618       Br624   1.918       .  S
C625        C626   1.407       .  A
C625        C630   1.400       .  A
C626        C627   1.403       .  A
C626       Br642   1.918       .  S
C627        C628   1.406       .  A
C627        H631   1.084       .  S
C628        C632   1.480       .  S
C628        C629   1.410       .  A
C629        C630   1.395       .  A
C629       Br641   1.921       .  S
C630        H633   1.084       .  S
C632        C634   1.406       .  A
C632        C638   1.408       .  A
C634        C635   1.404       .  A
C634        H639   1.083       .  S
C635        C636   1.411       .  A
C635       Br643   1.918       .  S
C636        C637   1.404       .  A
C637        C638   1.394       .  A
C637        H640   1.083       .  S
C638       Br644   1.921       .  S
C645        C646   1.415       .  A
C645        C650   1.407       .  A
C646        C647   1.403       .  A
C646       Br662   1.920       .  S
C647        C648   1.403       .  A
C647        H651   1.084       .  S
C648        C652   1.479       .  S
C648        C649   1.405       .  A
C649        C650   1.397       .  A
C649       Br661   1.919       .  S
C650        H653   1.084       .  S
C652        C654   1.400       .  A
C652        C658   1.407       .  A
C654        C655   1.400       .  A
C654        H659   1.084       .  S
C655        C656   1.417       .  A
C655       Br663   1.922       .  S
C656        C657   1.406       .  A
C657        C658   1.401       .  A
C657        H660   1.084       .  S
C658       Br664   1.918       .  S
C665        C666   1.406       .  A
C665        C670   1.400       .  A
C666        C667   1.404       .  A
C666       Br682   1.918       .  S
C667        C668   1.407       .  A
C667        H671   1.083       .  S
C668        C672   1.482       .  S
C668        C669   1.410       .  A
C669        C670   1.395       .  A
C669       Br681   1.921       .  S
C670        H673   1.084       .  S
C672        C674   1.405       .  A
C672        C678   1.408       .  A
C674        C675   1.404       .  A
C674        H679   1.083       .  S
C675        C676   1.412       .  A
C675       Br683   1.919       .  S
C676        C677   1.405       .  A
C677        C678   1.395       .  A
C677        H680   1.083       .  S
C678       Br684   1.921       .  S
C685        C686   1.416       .  A
C685        C690   1.407       .  A
C686        C687   1.401       .  A
C686       Br702   1.921       .  S
C687        C688   1.401       .  A
C687        H691   1.085       .  S
C688        C692   1.485       .  S
C688        C689   1.407       .  A
C689        C690   1.404       .  A
C689       Br701   1.917       .  S
C690        H693   1.084       .  S
C692        C694   1.403       .  A
C692        C698   1.406       .  A
C694        C695   1.405       .  A
C694        H699   1.084       .  S
C695        C696   1.416       .  A
C695       Br703   1.920       .  S
C696        C697   1.408       .  A
C697        C698   1.400       .  A
C697        H700   1.084       .  S
C698       Br704   1.919       .  S
C705        C706   1.412       .  A
C705        C710   1.403       .  A
C706        C707   1.396   1_545  A
C706       Br722   1.920       .  S
C707        C708   1.399       .  A
C707        H711   1.083       .  S
C708        C712   1.473       .  S
C708        C709   1.408   1_565  A
C709        C710   1.400       .  A
C709       Br721   1.918   1_545  S
C710        H713   1.083       .  S
C712        C714   1.404       .  A
C712        C718   1.405       .  A
C714        C715   1.401       .  A
C714        H719   1.084       .  S
C715        C716   1.408       .  A
C715       Br723   1.919       .  S
C716        C717   1.403       .  A
C717        C718   1.395       .  A
C717        H720   1.084       .  S
C718       Br724   1.919       .  S
C725        C726   1.412       .  A
C725        C730   1.403       .  A
C726        C727   1.406       .  A
C726       Br742   1.919       .  S
C727        C728   1.407       .  A
C727        H731   1.083       .  S
C728        C732   1.485       .  S
C728        C729   1.410       .  A
C729        C730   1.395       .  A
C729       Br741   1.921       .  S
C730        H733   1.084       .  S
C732        C734   1.408       .  A
C732        C738   1.411       .  A
C734        C735   1.405       .  A
C734        H739   1.083       .  S
C735        C736   1.407       .  A
C735       Br743   1.917       .  S
C736        C737   1.401       .  A
C737        C738   1.396       .  A
C737        H740   1.084       .  S
C738       Br744   1.921       .  S
C745        C746   1.411       .  A
C745        C750   1.403       .  A
C746        C747   1.398       .  A
C746       Br762   1.921       .  S
C747        C748   1.401       .  A
C747        H751   1.086       .  S
C748        C752   1.484       .  S
C748        C749   1.412       .  A
C749        C750   1.404       .  A
C749       Br761   1.919       .  S
C750        H753   1.086       .  S
C752        C754   1.405       .  A
C752        C758   1.409       .  A
C754        C755   1.403       .  A
C754        H759   1.083       .  S
C755        C756   1.411       .  A
C755       Br763   1.919       .  S
C756        C757   1.405       .  A
C757        C758   1.399       .  A
C757        H760   1.083       .  S
C758       Br764   1.920       .  S
C765        C766   1.413       .  A
C765        C770   1.405       .  A
C766        C767   1.399       .  A
C766       Br782   1.921       .  S
C767        C768   1.401       .  A
C767        H771   1.085   1_556  S
C768        C772   1.480   1_556  S
C768        C769   1.408       .  A
C769        C770   1.403       .  A
C769       Br781   1.917       .  S
C770        H773   1.085       .  S
C772        C774   1.401       .  A
C772        C778   1.408       .  A
C774        C775   1.399       .  A
C774        H779   1.084       .  S
C775        C776   1.412       .  A
C775       Br783   1.921       .  S
C776        C777   1.405       .  A
C777        C778   1.403       .  A
C777        H780   1.084       .  S
C778       Br784   1.917       .  S
C785        C786   1.406       .  A
C785        C790   1.401       .  A
C786        C787   1.405       .  A
C786       Br802   1.917       .  S
C787        C788   1.407       .  A
C787        H791   1.083       .  S
C788        C792   1.483       .  S
C788        C789   1.409       .  A
C789        C790   1.396       .  A
C789       Br801   1.921       .  S
C790        H793   1.084       .  S
C792        C794   1.406       .  A
C792        C798   1.408       .  A
C794        C795   1.405       .  A
C794        H799   1.083       .  S
C795        C796   1.412       .  A
C795       Br803   1.918       .  S
C796        C797   1.404       .  A
C797        C798   1.396       .  A
C797        H800   1.084       .  S
C798       Br804   1.921       .  S
C805        C806   1.414       .  A
C805        C810   1.408       .  A
C806        C807   1.407       .  A
C806       Br822   1.919       .  S
C807        C808   1.406       .  A
C807        H811   1.083       .  S
C808        C812   1.491       .  S
C808        C809   1.408       .  A
C809        C810   1.402       .  A
C809       Br821   1.919       .  S
C810        H813   1.083       .  S
C812        C814   1.403       .  A
C812        C818   1.413       .  A
C814        C815   1.402       .  A
C814        H819   1.085       .  S
C815        C816   1.411       .  A
C815       Br823   1.920       .  S
C816        C817   1.404       .  A
C817        C818   1.406       .  A
C817        H820   1.085       .  S
C818       Br824   1.918       .  S
C825        C826   1.410       .  A
C825        C830   1.405       .  A
C826        C827   1.400       .  A
C826       Br842   1.920       .  S
C827        C828   1.404       .  A
C827        H831   1.084       .  S
C828        C832   1.489   1_554  S
C828        C829   1.410       .  A
C829        C830   1.406       .  A
C829       Br841   1.917       .  S
C830        H833   1.084       .  S
C832        C834   1.404       .  A
C832        C838   1.406       .  A
C834        C835   1.409       .  A
C834        H839   1.083       .  S
C835        C836   1.421       .  A
C835       Br843   1.920       .  S
C836        C837   1.409       .  A
C837        C838   1.398       .  A
C837        H840   1.082       .  S
C838       Br844   1.920   1_556  S
C845        C846   1.419       .  A
C845        C850   1.412       .  A
C846        C847   1.402   1_545  A
C846       Br862   1.921       .  S
C847        C848   1.402       .  A
C847        H851   1.083       .  S
C848        C852   1.480       .  S
C848        C849   1.404       .  A
C849        C850   1.397   1_565  A
C849       Br861   1.920       .  S
C850        H853   1.082       .  S
C852        C854   1.401       .  A
C852        C858   1.409       .  A
C854        C855   1.398       .  A
C854        H859   1.083       .  S
C855        C856   1.412       .  A
C855       Br863   1.921       .  S
C856        C857   1.404       .  A
C857        C858   1.401       .  A
C857        H860   1.083       .  S
C858       Br864   1.918       .  S
