geometry optimzed in LAMMPS
_audit_creation_date              2020-12-01 
_audit_creation_method            'lammps2cif' 
_symmetry_space_group_name_H-M    'P1' 
_symmetry_Int_Tables_number       1 
_symmetry_cell_setting            triclinic 
loop_ 
_symmetry_equiv_pos_as_xyz 
  x,y,z 
_cell_length_a                    37.49771355 
_cell_length_b                    37.95647019609315 
_cell_length_c                    37.78664103119746 
_cell_angle_alpha                 89.94512627870661 
_cell_angle_beta                  90.2046143153656 
_cell_angle_gamma                 90.01015434204585 
loop_ 
_atom_site_label 
_atom_site_type_symbol 
_atom_site_fract_x 
_atom_site_fract_y 
_atom_site_fract_z 
_atom_site_charge 
O1          O  0.75494869  0.46218016  0.80434670    -0.74100
O2          O  0.80692230  0.53297022  0.75392756    -0.74100
O3          O  0.75615655  0.53338727  0.80496702    -0.74100
O4          O  0.80535540  0.46157744  0.75338166    -0.74200
O5          O  0.76346853  0.46369359  0.71128751    -0.74100
O6          O  0.71350889  0.53427371  0.76385630    -0.74100
O7          O  0.76443285  0.53467790  0.71260753    -0.74100
O8          O  0.71294192  0.46297754  0.76261703    -0.74100
Ni9        Ni  0.78234712  0.49750893  0.78060568     1.25400
Ni10       Ni  0.73703817  0.49894905  0.73613120     1.25400
C11         C  0.72521916  0.45095277  0.79195388     0.88100
C12         C  0.79444829  0.54542628  0.72488487     0.88100
C13         C  0.72655173  0.54555372  0.79314567     0.88100
C14         C  0.79261030  0.45115568  0.72370748     0.88300
O15         O  0.40819799  0.85825311  0.75728571    -0.74100
O16         O  0.48158548  0.80633057  0.80582509    -0.74100
O17         O  0.48079790  0.85779011  0.75586463    -0.74100
O18         O  0.40889112  0.80712395  0.80710189    -0.74200
O19         O  0.40788562  0.76649597  0.76460504    -0.74100
O20         O  0.47981644  0.81695667  0.71360050    -0.74100
O21         O  0.48011368  0.76566704  0.76346505    -0.74100
O22         O  0.40784787  0.81758636  0.71469194    -0.74100
Ni23       Ni  0.44494074  0.83383790  0.78306343     1.25400
Ni24       Ni  0.44385829  0.79022595  0.73765107     1.25400
C25         C  0.39612980  0.84638902  0.72784757     0.88100
C26         C  0.49293664  0.77728000  0.79264786     0.88100
C27         C  0.49224555  0.84577580  0.72629210     0.88100
C28         C  0.39642610  0.77843219  0.79417275     0.88300
O29         O  0.71359969  0.81840453  0.41751623    -0.74100
O30         O  0.76602868  0.76582157  0.48630257    -0.74100
O31         O  0.71691887  0.81745367  0.48922046    -0.74100
O32         O  0.76296179  0.76638825  0.41507635    -0.74200
O33         O  0.80619251  0.80669735  0.41368122    -0.74100
O34         O  0.75976844  0.85827035  0.48728836    -0.74100
O35         O  0.80918922  0.80618099  0.48540584    -0.74100
O36         O  0.75674395  0.85859627  0.41570263    -0.74100
Ni37       Ni  0.73831400  0.79064519  0.45205483     1.25400
Ni38       Ni  0.78454220  0.83389040  0.45048502     1.25400
C39         C  0.72645449  0.84709420  0.40497281     0.88100
C40         C  0.79632743  0.77710874  0.49706135     0.88100
C41         C  0.73078405  0.84619912  0.50035409     0.88100
C42         C  0.79227980  0.77802424  0.40228318     0.88300
C43         C  0.29468984  0.92969049  0.24436819     0.03500
C44         C  0.29089239  0.96656207  0.24439019    -0.12700
C45         C  0.27050724  0.98400746  0.27052387     0.01000
C46         C  0.25131168  0.96302561  0.29466655    -0.11200
C47         C  0.25207877  0.92615866  0.29281931     0.03500
C48         C  0.27403931  0.90968876  0.26787742    -0.10600
H49         H  0.30438429  0.98123683  0.22395343     0.09100
H50         H  0.23632116  0.97478467  0.31594386     0.06600
H51         H  0.27559086  0.88120293  0.26732992     0.06500
C52         C  0.29898834  0.08043855  0.26123354     0.03500
C53         C  0.29833489  0.04366023  0.25845627    -0.12700
C54         C  0.27087247  0.02358482  0.27391595     0.01000
C55         C  0.24475741  0.04180335  0.29371514    -0.11200
C56         C  0.24754603  0.07825661  0.29999703     0.03500
C57         C  0.27436961  0.09749036  0.28294092    -0.10600
H58         H  0.31973998  0.03129284  0.24403992     0.09100
H59         H  0.22213405  0.02809989  0.30472484     0.06600
H60         H  0.27611006  0.12577146  0.28645678     0.06500
O61         O  0.41259656  0.14358601  0.15050091    -0.74100
O62         O  0.48189359  0.18861456  0.09234062    -0.74100
O63         O  0.48433657  0.14173490  0.14644514    -0.74100
O64         O  0.41018288  0.19060237  0.09654175    -0.74200
O65         O  0.41512056  0.23530064  0.13456762    -0.74100
O66         O  0.48664712  0.18509217  0.18616907    -0.74100
O67         O  0.48682105  0.23176335  0.13224318    -0.74100
O68         O  0.41503477  0.18804271  0.18891722    -0.74100
Ni69       Ni  0.44711491  0.16452392  0.12009727     1.25400
Ni70       Ni  0.45097820  0.21164443  0.16186062     1.25400
C71         C  0.40250523  0.15812748  0.17934789     0.88100
C72         C  0.49566189  0.21761224  0.10282651     0.88100
C73         C  0.49733242  0.15516702  0.17479835     0.88100
C74         C  0.40115820  0.22145987  0.10688489     0.88300
C75         C  0.59924500  0.92427932  0.25162193     0.03500
C76         C  0.60167820  0.96105993  0.25073608    -0.12700
C77         C  0.62239906  0.97960983  0.27592108     0.01000
C78         C  0.64139164  0.95953367  0.30128306    -0.11200
C79         C  0.64098786  0.92254723  0.30083921     0.03500
C80         C  0.61980804  0.90508944  0.27576644    -0.10600
H81         H  0.58660347  0.97448598  0.23046227     0.09100
H82         H  0.65601112  0.97203433  0.32244537     0.06600
H83         H  0.61883347  0.87656880  0.27521845     0.06500
C84         C  0.59773368  0.07640845  0.25949643     0.03500
C85         C  0.59755763  0.03954441  0.25806912    -0.12700
C86         C  0.62312870  0.01936794  0.27673806     0.01000
C87         C  0.64886907  0.03786299  0.29693536    -0.11200
C88         C  0.64797253  0.07469543  0.29977081     0.03500
C89         C  0.62250795  0.09382131  0.28080096    -0.10600
H90         H  0.57656320  0.02736478  0.24283248     0.09100
H91         H  0.67002458  0.02432450  0.31077751     0.06600
H92         H  0.62172859  0.12229543  0.28283390     0.06500
O93         O  0.76244914  0.13809874  0.41296070    -0.74100
O94         O  0.81397633  0.18963234  0.48333626    -0.74100
O95         O  0.76283689  0.13874340  0.48455661    -0.74100
O96         O  0.81299843  0.18929955  0.41165531    -0.74200
O97         O  0.77036282  0.23032607  0.41156713    -0.74100
O98         O  0.72052985  0.17986828  0.48372373    -0.74100
O99         O  0.77121055  0.23052437  0.48370230    -0.74100
O100        O  0.72020583  0.17960165  0.41230907    -0.74100
Ni101      Ni  0.78964227  0.16249628  0.44813981     1.25400
Ni102      Ni  0.74415779  0.20660753  0.44786340     1.25400
C103        C  0.73288992  0.15033509  0.40127443     0.88100
C104        C  0.80092884  0.21837486  0.49528747     0.88100
C105        C  0.73284146  0.15069294  0.49562707     0.88100
C106        C  0.79954064  0.21788620  0.39934147     0.88300
C107        C  0.59872392  0.92205249  0.64487177     0.03500
C108        C  0.62284728  0.90329934  0.62390913    -0.12700
C109        C  0.65063319  0.92078004  0.60649458     0.01000
C110        C  0.65450685  0.95727582  0.61070603    -0.11200
C111        C  0.62910583  0.97746264  0.62917032     0.03500
C112        C  0.60142610  0.95896464  0.64675601    -0.10600
H113        H  0.61965235  0.87510806  0.62085593     0.09100
H114        H  0.67740902  0.96948307  0.59860685     0.06600
H115        H  0.58090879  0.97256185  0.66125307     0.06500
C116        C  0.65167874  0.07255215  0.60090936     0.03500
C117        C  0.65156369  0.03555914  0.60286294    -0.12700
C118        C  0.63060617  0.01730782  0.62824126     0.01000
C119        C  0.60924737  0.03774140  0.65106553    -0.11200
C120        C  0.60707735  0.07441301  0.64739980     0.03500
C121        C  0.62903407  0.09170079  0.62308951    -0.10600
H122        H  0.66691511  0.02167550  0.58324366     0.09100
H123        H  0.59298383  0.02567784  0.67118768     0.06600
H124        H  0.62791227  0.12016282  0.62095020     0.06500
C125        C  0.29419411  0.92343879  0.64325308     0.03500
C126        C  0.27469562  0.90504389  0.61764224    -0.12700
C127        C  0.25555352  0.92318598  0.59148891     0.01000
C128        C  0.25610072  0.96024765  0.59148739    -0.11200
C129        C  0.27373982  0.97953255  0.61845989     0.03500
C130        C  0.29241830  0.96024809  0.64461271    -0.10600
H131        H  0.27497672  0.87650540  0.61795672     0.09100
H132        H  0.24298723  0.97348820  0.56976880     0.06600
H133        H  0.30649913  0.97327654  0.66585397     0.06500
C134        C  0.24740751  0.07525627  0.59876518     0.03500
C135        C  0.24717459  0.03832652  0.59965999    -0.12700
C136        C  0.27318801  0.01928996  0.61894125     0.01000
C137        C  0.29912342  0.03881611  0.63795132    -0.11200
C138        C  0.29845171  0.07582250  0.63862111     0.03500
C139        C  0.27233256  0.09373462  0.61924092    -0.10600
H140        H  0.22702516  0.02493097  0.58432375     0.09100
H141        H  0.32069535  0.02583812  0.65173824     0.06600
H142        H  0.27186971  0.12228917  0.61935721     0.06500
O143        O  0.41517623  0.18120223  0.71122526    -0.74100
O144        O  0.48833802  0.22944950  0.76266078    -0.74100
O145        O  0.48725961  0.17877007  0.71238553    -0.74100
O146        O  0.41665706  0.23215524  0.76171201    -0.74200
O147        O  0.41445517  0.19082171  0.80351206    -0.74100
O148        O  0.48604416  0.13783164  0.75466784    -0.74100
O149        O  0.48641651  0.18862571  0.80495303    -0.74100
O150        O  0.41363523  0.13982879  0.75294895    -0.74100
Ni151      Ni  0.45189051  0.20679189  0.73547698     1.25400
Ni152      Ni  0.45000720  0.16274368  0.78047186     1.25400
C153        C  0.40234064  0.15238019  0.72345605     0.88100
C154        C  0.49917630  0.21736115  0.79249342     0.88100
C155        C  0.49868502  0.14976610  0.72556821     0.88100
C156        C  0.40433374  0.22064643  0.79111607     0.88300
O157        O  0.17618542  0.18486879  0.41150424    -0.74100
O158        O  0.12978275  0.23488208  0.48616055    -0.74100
O159        O  0.17878705  0.18299330  0.48293269    -0.74100
O160        O  0.12731287  0.23702219  0.41465844    -0.74200
O161        O  0.08430923  0.19657950  0.41429218    -0.74100
O162        O  0.13530924  0.14307887  0.48441093    -0.74100
O163        O  0.08607069  0.19520863  0.48614194    -0.74100
O164        O  0.13343931  0.14393536  0.41300400    -0.74100
Ni165      Ni  0.15452077  0.21136846  0.44881136     1.25400
Ni166      Ni  0.10814276  0.16831588  0.44944304     1.25400
C167        C  0.16267770  0.15590031  0.40044124     0.88100
C168        C  0.10023020  0.22336380  0.49850354     0.88100
C169        C  0.16592949  0.15408200  0.49479995     0.88100
C170        C  0.09739641  0.22571744  0.40292742     0.88300
C171        C  0.60005553  0.30226070  0.87158186     0.03500
C172        C  0.62556225  0.32249856  0.85407318    -0.12700
C173        C  0.64732967  0.34594509  0.87280711     0.01000
C174        C  0.64543038  0.34683832  0.90996664    -0.11200
C175        C  0.62045068  0.32585828  0.92859924     0.03500
C176        C  0.59723861  0.30438210  0.90841025    -0.10600
H177        H  0.62732484  0.32121310  0.82547081     0.09100
H178        H  0.66293488  0.36476881  0.92361836     0.06600
H179        H  0.57564539  0.28999790  0.92053590     0.06500
C180        C  0.59404071  0.30225954  0.02377867     0.03500
C181        C  0.59847800  0.30069241  0.98700979    -0.12700
C182        C  0.61749220  0.32702757  0.96844652     0.01000
C183        C  0.63366292  0.35407554  0.98864724    -0.11200
C184        C  0.63103863  0.35466431  0.02572124     0.03500
C185        C  0.61044222  0.32930523  0.04289788    -0.10600
H186        H  0.58723164  0.27818823  0.97355636     0.09100
H187        H  0.64841007  0.37510568  0.97632024     0.06600
H188        H  0.60760741  0.33036243  0.07138030     0.06500
O189        O  0.70576892  0.46343194  0.13724619    -0.74100
O190        O  0.75621908  0.53793443  0.18403769    -0.74100
O191        O  0.70410275  0.53436853  0.13418176    -0.74100
O192        O  0.75824447  0.46651472  0.18726108    -0.74200
O193        O  0.79865329  0.46498933  0.14424891    -0.74100
O194        O  0.74615435  0.53441153  0.09261457    -0.74100
O195        O  0.79828458  0.53595794  0.14240198    -0.74100
O196        O  0.74647263  0.46344734  0.09448271    -0.74100
Ni197      Ni  0.72963065  0.50055682  0.16226590     1.25400
Ni198      Ni  0.77383974  0.49965682  0.11695985     1.25400
C199        C  0.71737888  0.45169759  0.10764833     0.88100
C200        C  0.78570172  0.54886087  0.17102485     0.88100
C201        C  0.71633362  0.54557677  0.10461226     0.88100
C202        C  0.78740540  0.45443068  0.17439302     0.88300
C203        C  0.60222406  0.69888943  0.86872550     0.03500
C204        C  0.62449825  0.67537079  0.85081034    -0.12700
C205        C  0.64681844  0.65236574  0.86954532     0.01000
C206        C  0.64844691  0.65462183  0.90654959    -0.11200
C207        C  0.62555362  0.67720397  0.92572722     0.03500
C208        C  0.60234225  0.69914751  0.90586104    -0.10600
H209        H  0.62375394  0.67426044  0.82218315     0.09100
H210        H  0.66722933  0.63722590  0.92003596     0.06600
H211        H  0.58257027  0.71539321  0.91866763     0.06500
C212        C  0.59593177  0.69662960  0.02103043     0.03500
C213        C  0.61136471  0.66828754  0.03930565    -0.12700
C214        C  0.63364579  0.64454495  0.02179443     0.01000
C215        C  0.63844039  0.64757722  0.98520799    -0.11200
C216        C  0.62323527  0.67560768  0.96569575     0.03500
C217        C  0.60402892  0.70127948  0.98498283    -0.10600
H218        H  0.60652239  0.66481420  0.06731240     0.09100
H219        H  0.65418192  0.62702932  0.97247074     0.06600
H220        H  0.59478511  0.72510204  0.97229683     0.06500
C221        C  0.28732911  0.70275073  0.87171949     0.03500
C222        C  0.28510377  0.70573156  0.90868023    -0.12700
C223        C  0.26457268  0.68178764  0.92909077     0.01000
C224        C  0.24478650  0.65596867  0.91039942    -0.11200
C225        C  0.24571414  0.65398910  0.87336970     0.03500
C226        C  0.26717840  0.67714081  0.85429959    -0.10600
H227        H  0.30082343  0.72618679  0.92076218     0.09100
H228        H  0.22952002  0.63601675  0.92382783     0.06600
H229        H  0.26882862  0.67468832  0.82575886     0.06500
C230        C  0.29434068  0.70133139  0.02452028     0.03500
C231        C  0.29132477  0.70265614  0.98766159    -0.12700
C232        C  0.26592424  0.68201468  0.96922834     0.01000
C233        C  0.24339189  0.66010035  0.98981817    -0.11200
C234        C  0.24758959  0.65725992  0.02671703     0.03500
C235        C  0.27274918  0.67848965  0.04395868    -0.10600
H236        H  0.31009972  0.71935981  0.97418441     0.09100
H237        H  0.22289172  0.64415659  0.97784140     0.06600
H238        H  0.27579582  0.67701908  0.07245808     0.06500
O239        O  0.40964067  0.82330343  0.17453892    -0.74100
O240        O  0.48474215  0.77329949  0.12759691    -0.74100
O241        O  0.48178707  0.82388774  0.17798127    -0.74100
O242        O  0.41280294  0.77247056  0.12458959    -0.74200
O243        O  0.41141379  0.81518835  0.08397117    -0.74100
O244        O  0.48578946  0.86360295  0.13459395    -0.74100
O245        O  0.48364570  0.81288139  0.08389165    -0.74100
O246        O  0.41338873  0.86617693  0.13423216    -0.74100
Ni247      Ni  0.44721527  0.79679364  0.15267843     1.25400
Ni248      Ni  0.44863406  0.84099677  0.10764182     1.25400
C249        C  0.39952508  0.85317615  0.16227540     0.88100
C250        C  0.49594201  0.78449179  0.09761892     0.88100
C251        C  0.49553464  0.85187865  0.16497485     0.88100
C252        C  0.40038152  0.78547809  0.09585030     0.88300
C253        C  0.30912141  0.31042449  0.87119213     0.03500
C254        C  0.30877177  0.30974724  0.90833933    -0.12700
C255        C  0.28240521  0.32806579  0.92762523     0.01000
C256        C  0.25589614  0.34619722  0.90815806    -0.11200
C257        C  0.25747067  0.34920936  0.87115958     0.03500
C258        C  0.28434571  0.33122226  0.85289787    -0.10600
H259        H  0.32968985  0.29523880  0.92154894     0.09100
H260        H  0.23362542  0.35844973  0.92134706     0.06600
H261        H  0.28611470  0.33326836  0.82437825     0.06500
C262        C  0.30396276  0.30716093  0.02484980     0.03500
C263        C  0.28356576  0.33263663  0.04234142    -0.12700
C264        C  0.26304397  0.35686387  0.02300019     0.01000
C265        C  0.26377267  0.35564763  0.98591836    -0.11200
C266        C  0.28270815  0.32915844  0.96754449     0.03500
C267        C  0.30255286  0.30469488  0.98784654    -0.10600
H268        H  0.28382435  0.33357393  0.07099900     0.09100
H269        H  0.24981351  0.37627479  0.97188274     0.06600
H270        H  0.31752313  0.28379475  0.97549503     0.06500
C271        C  0.87254201  0.29929987  0.60407955     0.03500
C272        C  0.90892693  0.29452766  0.61184727    -0.12700
C273        C  0.92841821  0.31957310  0.63174364     0.01000
C274        C  0.90912298  0.34731465  0.64756233    -0.11200
C275        C  0.87231259  0.35048347  0.64248385     0.03500
C276        C  0.85451081  0.32772628  0.61948481    -0.10600
H277        H  0.92172778  0.27116094  0.60175249     0.09100
H278        H  0.92195675  0.36709173  0.66363706     0.06600
H279        H  0.82662322  0.33245176  0.61369621     0.06500
C280        C  0.02540621  0.29642494  0.61034532     0.03500
C281        C  0.98807255  0.29733375  0.60966173    -0.12700
C282        C  0.96850741  0.31754065  0.63427881     0.01000
C283        C  0.98803280  0.33809899  0.65883688    -0.11200
C284        C  0.02543324  0.33924171  0.65787674     0.03500
C285        C  0.04387282  0.31742246  0.63451827    -0.10600
H286        H  0.97494204  0.28352152  0.58833607     0.09100
H287        H  0.97481450  0.35477476  0.67777030     0.06600
H288        H  0.07277731  0.31814966  0.63399108     0.06500
O289        O  0.09074982  0.46272322  0.75732046    -0.74100
O290        O  0.14143827  0.53440703  0.80721473    -0.74100
O291        O  0.09105990  0.53400632  0.75560716    -0.74100
O292        O  0.14135794  0.46321286  0.80848358    -0.74200
O293        O  0.18266341  0.46084208  0.76614408    -0.74100
O294        O  0.13469574  0.53450436  0.71557121    -0.74100
O295        O  0.18487411  0.53224807  0.76717869    -0.74100
O296        O  0.13213998  0.46297058  0.71514752    -0.74100
Ni297      Ni  0.11461804  0.49863821  0.78360315     1.25400
Ni298      Ni  0.16011019  0.49763180  0.73951352     1.25400
C299        C  0.10295382  0.45101655  0.72801519     0.88100
C300        C  0.17174515  0.54484441  0.79577711     0.88100
C301        C  0.10482294  0.54602554  0.72703926     0.88100
C302        C  0.17017199  0.45029523  0.79578842     0.88300
C303        C  0.87432356  0.69639324  0.60184657     0.03500
C304        C  0.85625376  0.67138186  0.62214680    -0.12700
C305        C  0.87505606  0.64762707  0.64341210     0.01000
C306        C  0.91251688  0.64895711  0.64432440    -0.11200
C307        C  0.93173739  0.67428891  0.62433438     0.03500
C308        C  0.91160691  0.69832481  0.60373202    -0.10600
H309        H  0.82738764  0.67004373  0.62095910     0.09100
H310        H  0.92592247  0.62901886  0.65973142     0.06600
H311        H  0.92423497  0.71835759  0.58799562     0.06500
C312        C  0.02828911  0.69286608  0.59495396     0.03500
C313        C  0.99096473  0.69370551  0.59711681    -0.12700
C314        C  0.97217453  0.67445611  0.62323139     0.01000
C315        C  0.99263846  0.65422013  0.64728323    -0.11200
C316        C  0.02990817  0.65136801  0.64419132     0.03500
C317        C  0.04755776  0.67113272  0.61816948    -0.10600
H318        H  0.97733248  0.70886619  0.57713868     0.09100
H319        H  0.98017874  0.64001848  0.66863103     0.06600
H320        H  0.07623669  0.66919371  0.61553358     0.06500
O321        O  0.13722283  0.86035742  0.40608729    -0.74100
O322        O  0.08689439  0.80861694  0.47799117    -0.74100
O323        O  0.13816511  0.85953108  0.47783749    -0.74100
O324        O  0.08593916  0.80990626  0.40580988    -0.74200
O325        O  0.12787242  0.76835033  0.40521324    -0.74100
O326        O  0.18004785  0.81808537  0.47680926    -0.74100
O327        O  0.12906436  0.76739405  0.47676966    -0.74100
O328        O  0.17897818  0.81871086  0.40539397    -0.74100
Ni329      Ni  0.11049886  0.83607395  0.44200370     1.25400
Ni330      Ni  0.15541802  0.79169315  0.44103685     1.25400
C331        C  0.16658860  0.84804303  0.39395679     0.88100
C332        C  0.09971995  0.77928957  0.48922212     0.88100
C333        C  0.16800659  0.84726071  0.48898684     0.88100
C334        C  0.09842621  0.78100133  0.39345674     0.88300
C335        C  0.86648865  0.69564387  0.29710384     0.03500
C336        C  0.84719120  0.67388198  0.27425080    -0.12700
C337        C  0.86448195  0.65541042  0.24730251     0.01000
C338        C  0.90157955  0.65907282  0.24334321    -0.11200
C339        C  0.92225337  0.67903191  0.26752535     0.03500
C340        C  0.90371207  0.69768211  0.29418238    -0.10600
H341        H  0.81870060  0.67094253  0.27793579     0.09100
H342        H  0.91375659  0.64562535  0.22134943     0.06600
H343        H  0.91752295  0.71311938  0.31384192     0.06500
C344        C  0.02062858  0.69988437  0.28807503     0.03500
C345        C  0.98334109  0.70282677  0.28615649    -0.12700
C346        C  0.96264089  0.67878235  0.26606988     0.01000
C347        C  0.98117598  0.65283394  0.24641147    -0.11200
C348        C  0.01861122  0.65154623  0.24578594     0.03500
C349        C  0.03806449  0.67504385  0.26691791    -0.10600
H350        H  0.97108892  0.72333412  0.30161321     0.09100
H351        H  0.96713121  0.63233025  0.23239075     0.06600
H352        H  0.06692365  0.67346222  0.26759980     0.06500
C353        C  0.87212369  0.30153163  0.29303796     0.03500
C354        C  0.90808946  0.29667430  0.28413500    -0.12700
C355        C  0.92735091  0.32259603  0.26539591     0.01000
C356        C  0.90794789  0.35089601  0.25057992    -0.11200
C357        C  0.87090694  0.35378489  0.25550946     0.03500
C358        C  0.85344560  0.32970734  0.27763988    -0.10600
H359        H  0.92107129  0.27282049  0.29298481     0.09100
H360        H  0.92114058  0.37129719  0.23558877     0.06600
H361        H  0.82523252  0.33291433  0.28270219     0.06500
C362        C  0.02374218  0.30137130  0.29092580     0.03500
C363        C  0.98647188  0.30200305  0.29005192    -0.12700
C364        C  0.96749123  0.32115582  0.26405446     0.01000
C365        C  0.98746398  0.34105178  0.23941058    -0.11200
C366        C  0.02492683  0.34258045  0.24164608     0.03500
C367        C  0.04282889  0.32154515  0.26653793    -0.10600
H368        H  0.97274787  0.28838940  0.31101656     0.09100
H369        H  0.97432600  0.35665981  0.21932222     0.06600
H370        H  0.07171541  0.32192343  0.26779533     0.06500
O371        O  0.17826499  0.53786328  0.12962800    -0.74100
O372        O  0.12939581  0.46213504  0.17543342    -0.74100
O373        O  0.18151353  0.46701820  0.12628655    -0.74100
O374        O  0.12647699  0.53322699  0.17907705    -0.74200
O375        O  0.08484499  0.53357052  0.13701687    -0.74100
O376        O  0.14077847  0.46722462  0.08334203    -0.74100
O377        O  0.08833062  0.46191940  0.13271472    -0.74100
O378        O  0.13677548  0.53862249  0.08728036    -0.74100
Ni379      Ni  0.15528821  0.50002338  0.15408878     1.25400
Ni380      Ni  0.11115555  0.50032458  0.10854736     1.25400
C381        C  0.16564349  0.55073458  0.10083903     0.88100
C382        C  0.10083571  0.44944438  0.16173087     0.88100
C383        C  0.17065584  0.45634065  0.09597414     0.88100
C384        C  0.09662640  0.54447316  0.16704991     0.88300
C385        C  0.08175222  0.42085679  0.18077258     0.00200
C386        C  0.08546321  0.41925808  0.21770239    -0.11700
C387        C  0.06748947  0.39394424  0.23765746     0.02400
C388        C  0.04520675  0.36902386  0.22074071     0.00100
C389        C  0.04158239  0.37024583  0.18373675    -0.11600
C390        C  0.05974595  0.39572352  0.16364971     0.02300
H391        H  0.10191519  0.43850042  0.23132141     0.15300
H392        H  0.02476716  0.35106037  0.17050583     0.15300
C393        C  0.05626526  0.39458639  0.12559958     0.37000
C394        C  0.07136298  0.39523093  0.27569253     0.36900
N395        N  0.05354836  0.39347768  0.09509900    -0.43400
N396        N  0.07465029  0.39627339  0.30613468    -0.43400
C397        C  0.07590454  0.57088644  0.18792813     0.00200
C398        C  0.05002564  0.59164381  0.17066918    -0.11700
C399        C  0.03113938  0.61796255  0.18881368     0.02400
C400        C  0.03758101  0.62376664  0.22522330     0.00100
C401        C  0.06300745  0.60281064  0.24259458    -0.11600
C402        C  0.08210350  0.57673703  0.22454143     0.02300
H403        H  0.04510329  0.58797451  0.14261664     0.15300
H404        H  0.06788463  0.60673122  0.27063161     0.15300
C405        C  0.10747660  0.55628249  0.24477189     0.37000
C406        C  0.00653024  0.63971651  0.16905182     0.36900
N407        N  0.12783397  0.54009012  0.26115155    -0.43400
N408        N  0.98684282  0.65719587  0.15321841    -0.43400
C409        C  0.07850363  0.76126079  0.36574270     0.00200
C410        C  0.08083230  0.72434140  0.36563119    -0.11700
C411        C  0.06225900  0.70414751  0.34067694     0.02400
C412        C  0.04115976  0.72081902  0.31451070     0.00100
C413        C  0.03880733  0.75774442  0.31443101    -0.11600
C414        C  0.05728136  0.77801890  0.33962730     0.02300
H415        H  0.09660724  0.71104895  0.38572241     0.15300
H416        H  0.02272618  0.77077338  0.29441333     0.15300
C417        C  0.05496242  0.81589461  0.33715606     0.37000
C418        C  0.06397180  0.66623741  0.34361659     0.36900
N419        N  0.05305018  0.84624413  0.33496557    -0.43400
N420        N  0.06524603  0.63586643  0.34601287    -0.43400
C421        C  0.04679579  0.71470689  0.56779273     0.00200
C422        C  0.03962403  0.75104042  0.56606928    -0.11700
C423        C  0.05606707  0.77268391  0.54074266     0.02400
C424        C  0.08061899  0.75802870  0.51647080     0.00100
C425        C  0.08746544  0.72158586  0.51816177    -0.11600
C426        C  0.07065133  0.69996722  0.54311864     0.02300
H427        H  0.02120144  0.76262062  0.58482447     0.15300
H428        H  0.10559035  0.70963291  0.49936631     0.15300
C429        C  0.07701261  0.66248617  0.54160190     0.37000
C430        C  0.04770988  0.80981791  0.54100364     0.36900
N431        N  0.08202077  0.63243702  0.54022204    -0.43400
N432        N  0.04081087  0.83953776  0.54132407    -0.43400
C433        C  0.04962601  0.62522863  0.66640197     0.00200
C434        C  0.03610206  0.59070264  0.66870909    -0.11700
C435        C  0.05360701  0.56479363  0.68861269     0.02400
C436        C  0.08552387  0.57301864  0.70646756     0.00100
C437        C  0.09935996  0.60728300  0.70422452    -0.11600
C438        C  0.08154756  0.63348570  0.68472275     0.02300
H439        H  0.01196308  0.58375548  0.65443321     0.15300
H440        H  0.12384190  0.61368654  0.71818235     0.15300
C441        C  0.09589377  0.66878350  0.68506240     0.37000
C442        C  0.03901269  0.52957418  0.68938604     0.36900
N443        N  0.10741621  0.69707181  0.68533343    -0.43400
N444        N  0.02745274  0.50130792  0.68997797    -0.43400
C445        C  0.08319056  0.42270704  0.70949713     0.00200
C446        C  0.06202405  0.39959888  0.72965391    -0.11700
C447        C  0.04314835  0.37202578  0.71366692     0.02400
C448        C  0.04526226  0.36723172  0.67678775     0.00100
C449        C  0.06618860  0.39038753  0.65660728    -0.11600
C450        C  0.08498788  0.41797201  0.67246932     0.02300
H451        H  0.06058434  0.40273486  0.75814000     0.15300
H452        H  0.06732111  0.38724654  0.62809057     0.15300
C453        C  0.10454868  0.44168991  0.64977757     0.37000
C454        C  0.02269964  0.34852211  0.73576023     0.36900
N455        N  0.12005105  0.46062834  0.63138344    -0.43400
N456        N  0.00631466  0.32977607  0.75358255    -0.43400
C457        C  0.24001003  0.38322351  0.04118236     0.00200
C458        C  0.20401517  0.38622513  0.03101358    -0.11700
C459        C  0.18100751  0.41019590  0.04762325     0.02400
C460        C  0.19373879  0.43145270  0.07574028     0.00100
C461        C  0.23003085  0.42888925  0.08524177    -0.11600
C462        C  0.25313491  0.40555075  0.06804678     0.02300
H463        H  0.19370166  0.36947160  0.01010580     0.15300
H464        H  0.24073725  0.44566601  0.10592290     0.15300
C465        C  0.29052643  0.40637775  0.07729289     0.37000
C466        C  0.14455229  0.41188848  0.03532441     0.36900
N467        N  0.32051413  0.40726170  0.08457934    -0.43400
N468        N  0.11544774  0.41327126  0.02511538    -0.43400
C469        C  0.23261201  0.37354575  0.85223968     0.00200
C470        C  0.22694162  0.40732899  0.86651157    -0.11700
C471        C  0.20574149  0.43215343  0.84895074     0.02400
C472        C  0.19013001  0.42366681  0.81614455     0.00100
C473        C  0.19508266  0.38990798  0.80193328    -0.11600
C474        C  0.21562236  0.36464236  0.81992313     0.02300
H475        H  0.23998227  0.41480569  0.89104525     0.15300
H476        H  0.18267752  0.38323882  0.77683898     0.15300
C477        C  0.21797434  0.32965528  0.80511938     0.37000
C478        C  0.20190470  0.46685120  0.86415014     0.36900
N479        N  0.21997892  0.30160883  0.79329476    -0.43400
N480        N  0.19882058  0.49471674  0.87615678    -0.43400
C481        C  0.18557739  0.57919040  0.08263776     0.00200
C482        C  0.22289315  0.57944424  0.08548514    -0.11700
C483        C  0.24339357  0.60472793  0.06791474     0.02400
C484        C  0.22660268  0.63078156  0.04693248     0.00100
C485        C  0.18920729  0.63085062  0.04435954    -0.11600
C486        C  0.16863623  0.60554220  0.06213112     0.02300
H487        H  0.23627369  0.55923054  0.10090852     0.15300
H488        H  0.17602980  0.65097294  0.02866010     0.15300
C489        C  0.13026961  0.60814857  0.06006274     0.37000
C490        C  0.28168555  0.60225328  0.07090472     0.36900
N491        N  0.09951265  0.61034062  0.05864616    -0.43400
N492        N  0.31231368  0.59986728  0.07374797    -0.43400
C493        C  0.32171357  0.72286059  0.04248442     0.00200
C494        C  0.31546449  0.75893754  0.04765172    -0.11700
C495        C  0.34111441  0.78022315  0.06422067     0.02400
C496        C  0.37335945  0.76512638  0.07620323     0.00100
C497        C  0.37963966  0.72912911  0.07062653    -0.11600
C498        C  0.35438342  0.70808968  0.05344621     0.02300
H499        H  0.29044516  0.77038532  0.03887806     0.15300
H500        H  0.40463286  0.71752467  0.07930341     0.15300
C501        C  0.36319130  0.67182222  0.04610762     0.37000
C502        C  0.33313433  0.81698172  0.06996856     0.36900
N503        N  0.37076744  0.64294509  0.03987685    -0.43400
N504        N  0.32669232  0.84641222  0.07473729    -0.43400
C505        C  0.19137116  0.57218298  0.81589758     0.00200
C506        C  0.17178665  0.59647464  0.83613303    -0.11700
C507        C  0.18892852  0.62318254  0.85520034     0.02400
C508        C  0.22638221  0.62578450  0.85438357     0.00100
C509        C  0.24604669  0.60143065  0.83453439    -0.11600
C510        C  0.22899757  0.57466865  0.81549841     0.02300
H511        H  0.14290353  0.59504834  0.83654727     0.15300
H512        H  0.27492503  0.60320316  0.83418677     0.15300
C513        C  0.25094147  0.54951069  0.79696041     0.37000
C514        C  0.16751310  0.64841145  0.87425140     0.36900
N515        N  0.26861263  0.52933377  0.78222201    -0.43400
N516        N  0.15038605  0.66870547  0.88945066    -0.43400
C517        C  0.57089425  0.72095192  0.03970130     0.00200
C518        C  0.57872137  0.73168833  0.07456291    -0.11700
C519        C  0.55466066  0.75224538  0.09394244     0.02400
C520        C  0.52269740  0.76378388  0.07802300     0.00100
C521        C  0.51515427  0.75403637  0.04303744    -0.11600
C522        C  0.53828720  0.73206015  0.02417403     0.02300
H523        H  0.60356274  0.72369409  0.08694000     0.15300
H524        H  0.49016692  0.76220676  0.03100434     0.15300
C525        C  0.52643492  0.71928343  0.99009479     0.37000
C526        C  0.56341120  0.76138484  0.13003441     0.36900
N527        N  0.51690839  0.70890512  0.96286295    -0.43400
N528        N  0.57019388  0.76860849  0.15903575    -0.43400
C529        C  0.80607969  0.57619290  0.18973203     0.00200
C530        C  0.79262559  0.61058377  0.19132484    -0.11700
C531        C  0.81154996  0.63718234  0.20899846     0.02400
C532        C  0.84446253  0.62926399  0.22567965     0.00100
C533        C  0.85780624  0.59470856  0.22372485    -0.11600
C534        C  0.83889429  0.56825373  0.20606085     0.02300
H535        H  0.76742202  0.61668025  0.17853471     0.15300
H536        H  0.88259385  0.58807018  0.23703125     0.15300
C537        C  0.85268738  0.53271717  0.20663068     0.37000
C538        C  0.79689384  0.67236019  0.20905006     0.36900
N539        N  0.86352449  0.50417792  0.20734379    -0.43400
N540        N  0.78498919  0.70048965  0.20921315    -0.43400
C541        C  0.80878756  0.42841259  0.19488336     0.00200
C542        C  0.80609975  0.42787691  0.23200714    -0.11700
C543        C  0.82643858  0.40438138  0.25245430     0.02400
C544        C  0.85014967  0.38079220  0.23575840     0.00100
C545        C  0.85296159  0.38141698  0.19878052    -0.11600
C546        C  0.83247484  0.40457427  0.17830562     0.02300
H547        H  0.78837010  0.44617427  0.24519861     0.15300
H548        H  0.87058699  0.36290610  0.18570929     0.15300
C549        C  0.83528676  0.40188083  0.14030839     0.37000
C550        C  0.82303028  0.40556718  0.29048238     0.36900
N551        N  0.83765874  0.39940384  0.10989086    -0.43400
N552        N  0.82014042  0.40644074  0.32095156    -0.43400
C553        C  0.65402087  0.61803277  0.04230636     0.00200
C554        C  0.69134007  0.62044758  0.04245140    -0.11700
C555        C  0.71207424  0.59762664  0.06305213     0.02400
C556        C  0.69542632  0.57126607  0.08361855     0.00100
C557        C  0.65802058  0.56883519  0.08343663    -0.11600
C558        C  0.63727456  0.59192163  0.06299221     0.02300
H559        H  0.70427001  0.64094693  0.02713449     0.15300
H560        H  0.64497469  0.54849692  0.09887294     0.15300
C561        C  0.59900869  0.58772242  0.06294866     0.37000
C562        C  0.75017043  0.60320528  0.06412900     0.36900
N563        N  0.56834659  0.58425199  0.06294059    -0.43400
N564        N  0.78065908  0.60784664  0.06523181    -0.43400
C565        C  0.69600327  0.42540254  0.08766496     0.00200
C566        C  0.65901546  0.42365051  0.09357073    -0.11700
C567        C  0.63718520  0.40129523  0.07350139     0.02400
C568        C  0.65233187  0.38004866  0.04683782     0.00100
C569        C  0.68926089  0.38130844  0.04131825    -0.11600
C570        C  0.71113760  0.40342887  0.06146942     0.02300
H571        H  0.64687758  0.44043342  0.11337451     0.15300
H572        H  0.70120379  0.36431937  0.02154874     0.15300
C573        C  0.74906725  0.40199137  0.05523430     0.37000
C574        C  0.59926935  0.40144282  0.08012636     0.36900
N575        N  0.77942555  0.40058400  0.05004876    -0.43400
N576        N  0.56891306  0.40138915  0.08555899    -0.43400
C577        C  0.08211554  0.24243853  0.52763856     0.00200
C578        C  0.05705337  0.22414895  0.54836402    -0.11700
C579        C  0.03884672  0.24090977  0.57587611     0.02400
C580        C  0.04525820  0.27684269  0.58285685     0.00100
C581        C  0.07053256  0.29504494  0.56257984    -0.11600
C582        C  0.08902396  0.27831388  0.53531720     0.02300
H583        H  0.05185567  0.19649150  0.54334957     0.15300
H584        H  0.07536505  0.32277687  0.56763421     0.15300
C585        C  0.11405533  0.29918136  0.51527934     0.37000
C586        C  0.01450390  0.22045319  0.59717376     0.36900
N587        N  0.13414513  0.31608969  0.49945302    -0.43400
N588        N  0.99500399  0.20413863  0.61430315    -0.43400
C589        C  0.04257307  0.28168750  0.31936219     0.00200
C590        C  0.06634467  0.29979066  0.34157945    -0.11700
C591        C  0.08404422  0.28248251  0.36928908     0.08400
C592        C  0.07812898  0.24603868  0.37514809     0.00100
C593        C  0.05397289  0.22813072  0.35303195    -0.11600
C594        C  0.03638658  0.24550523  0.32532941     0.02300
H595        H  0.07072110  0.32773895  0.33755200     0.15300
H596        H  0.04934550  0.20017799  0.35682553     0.15300
C597        C  0.01310025  0.22531348  0.30257467     0.37000
C598        C  0.10731521  0.30320411  0.39161392     0.36900
N599        N  0.99442350  0.20921931  0.28427508    -0.43400
N600        N  0.12593208  0.31998447  0.40935554    -0.43400
C601        C  0.52589220  0.23791413  0.81297230     0.00200
C602        C  0.52893136  0.27414421  0.80578761    -0.11700
C603        C  0.55254310  0.29544302  0.82477741     0.02400
C604        C  0.57457259  0.28047799  0.85108360     0.00100
C605        C  0.57166970  0.24437769  0.85854036    -0.11600
C606        C  0.54747622  0.22305687  0.83998453     0.02300
H607        H  0.51199289  0.28626009  0.78588483     0.15300
H608        H  0.58838966  0.23284147  0.87897290     0.15300
C609        C  0.54569938  0.18620495  0.84930311     0.37000
C610        C  0.55214037  0.33292740  0.81813314     0.36900
N611        N  0.54426676  0.15676649  0.85717382    -0.43400
N612        N  0.55159813  0.36297981  0.81298388    -0.43400
C613        C  0.37920712  0.24297669  0.81154181     0.00200
C614        C  0.38088527  0.27978063  0.80726284    -0.11700
C615        C  0.35890997  0.30226306  0.82686344     0.02400
C616        C  0.33446763  0.28803505  0.85127143     0.00100
C617        C  0.33272109  0.25136895  0.85568047    -0.11600
C618        C  0.35461580  0.22880767  0.83605389     0.02300
H619        H  0.39993444  0.29116623  0.78899554     0.15300
H620        H  0.31355892  0.24028460  0.87403627     0.15300
C621        C  0.35017685  0.19130287  0.84073123     0.37000
C622        C  0.36271021  0.33984772  0.82226867     0.36900
N623        N  0.34647684  0.16126103  0.84448326    -0.43400
N624        N  0.36579567  0.36996842  0.81861823    -0.43400
C625        C  0.18686604  0.13327850  0.52089128     0.00200
C626        C  0.16916847  0.10971263  0.54364971    -0.11700
C627        C  0.18799067  0.09048312  0.56939533     0.02400
C628        C  0.22527263  0.09476823  0.57267261     0.00100
C629        C  0.24291733  0.11768239  0.54948379    -0.11600
C630        C  0.22435774  0.13668161  0.52376460     0.02300
H631        H  0.14046744  0.10669192  0.54174918     0.15300
H632        H  0.27169513  0.12030257  0.55107605     0.15300
C633        C  0.24502052  0.15838960  0.50002244     0.37000
C634        C  0.16830557  0.06736478  0.59256955     0.36900
N635        N  0.26176727  0.17567082  0.48107465    -0.43400
N636        N  0.15242074  0.04872756  0.61095176    -0.43400
C637        C  0.32508152  0.09582787  0.65985269     0.00200
C638        C  0.32830801  0.08845769  0.69610335    -0.11700
C639        C  0.35239396  0.10701723  0.71755598     0.02400
C640        C  0.37475663  0.13311048  0.70255589     0.00100
C641        C  0.37114668  0.14067816  0.66624182    -0.11600
C642        C  0.34658646  0.12254670  0.64497232     0.02300
H643        H  0.31128782  0.06855741  0.70788830     0.15300
H644        H  0.38792399  0.16057709  0.65415622     0.15300
C645        C  0.34470550  0.13137876  0.60781319     0.37000
C646        C  0.35225444  0.09962298  0.75503674     0.36900
N647        N  0.34315959  0.13875573  0.57812053    -0.43400
N648        N  0.35182883  0.09377926  0.78509626    -0.43400
C649        C  0.23385837  0.90367356  0.56472023     0.00200
C650        C  0.19821326  0.91380818  0.55929195    -0.11700
C651        C  0.17603617  0.89578778  0.53543392     0.02400
C652        C  0.18961478  0.86709392  0.51564265     0.00100
C653        C  0.22536087  0.85712377  0.52106516    -0.11600
C654        C  0.24733531  0.87481865  0.54525735     0.02300
H655        H  0.18729751  0.93546967  0.57451568     0.15300
H656        H  0.23649254  0.83537395  0.50614995     0.15300
C657        C  0.28367888  0.86280151  0.54887771     0.37000
C658        C  0.13922676  0.90671359  0.53311660     0.36900
N659        N  0.31252116  0.85229319  0.55157674    -0.43400
N660        N  0.10970472  0.91549588  0.53161301    -0.43400
C661        C  0.57975826  0.09431911  0.66736630     0.00200
C662        C  0.57915751  0.09210512  0.70441354    -0.11700
C663        C  0.55295072  0.10963610  0.72403021     0.02400
C664        C  0.52667197  0.12995208  0.70642590     0.00100
C665        C  0.52730546  0.13195748  0.66932264    -0.11600
C666        C  0.55323595  0.11416412  0.64975986     0.02300
H667        H  0.59938892  0.07676457  0.71805003     0.15300
H668        H  0.50700019  0.14698007  0.65543433     0.15300
C669        C  0.55103359  0.11541244  0.61159493     0.37000
C670        C  0.55451706  0.10713956  0.76211732     0.36900
N671        N  0.54920943  0.11632123  0.58102717    -0.43400
N672        N  0.55598805  0.10494486  0.79263084    -0.43400
C673        C  0.81813427  0.23721275  0.37091470     0.00200
C674        C  0.85375560  0.24683205  0.37614520    -0.11700
C675        C  0.87165780  0.26789814  0.35150990     0.02400
C676        C  0.85446553  0.27804995  0.31953655     0.00100
C677        C  0.81896318  0.26730201  0.31394793    -0.11600
C678        C  0.80054596  0.24782506  0.33959805     0.02300
H679        H  0.86706578  0.23942778  0.40055180     0.15300
H680        H  0.80528320  0.27458287  0.28970104     0.15300
C681        C  0.76359042  0.23918791  0.33316952     0.37000
C682        C  0.90646375  0.28092404  0.36147443     0.36900
N683        N  0.73387306  0.23269518  0.32800322    -0.43400
N684        N  0.93419175  0.29137270  0.36997278    -0.43400
C685        C  0.85433181  0.27614367  0.57770637     0.00200
C686        C  0.87288987  0.26635609  0.54689564    -0.11700
C687        C  0.85647893  0.24628667  0.52042604     0.02400
C688        C  0.82008496  0.23756642  0.52336721     0.00100
C689        C  0.80158638  0.24665315  0.55418662    -0.11600
C690        C  0.81867737  0.26458883  0.58181051     0.02300
H691        H  0.90028894  0.27466256  0.54318788     0.15300
H692        H  0.77400171  0.23857890  0.55718721     0.15300
C693        C  0.79969216  0.26869461  0.61472759     0.37000
C694        C  0.87755149  0.23527672  0.49049326     0.36900
N695        N  0.78456011  0.27168317  0.64119493    -0.43400
N696        N  0.89483578  0.22604766  0.46694843    -0.43400
C697        C  0.71179319  0.13043555  0.52223268     0.00200
C698        C  0.72928400  0.10645188  0.54481073    -0.11700
C699        C  0.71038236  0.08717737  0.57041417     0.02400
C700        C  0.67309764  0.09145576  0.57365575     0.00100
C701        C  0.65558436  0.11497423  0.55083098    -0.11600
C702        C  0.67431303  0.13427850  0.52536329     0.02300
H703        H  0.75793873  0.10317152  0.54292985     0.15300
H704        H  0.62689145  0.11807779  0.55274064     0.15300
C705        C  0.65386299  0.15684905  0.50212958     0.37000
C706        C  0.73006790  0.06429968  0.59395204     0.36900
N707        N  0.63735722  0.17486035  0.48354963    -0.43400
N708        N  0.74587193  0.04599935  0.61284176    -0.43400
C709        C  0.67194599  0.09309029  0.32480606     0.00200
C710        C  0.67120449  0.08309127  0.36057538    -0.11700
C711        C  0.69122138  0.10136726  0.38582841     0.02400
C712        C  0.71260818  0.12993447  0.37526453     0.00100
C713        C  0.71406214  0.13957655  0.33953184    -0.11600
C714        C  0.69383238  0.12147267  0.31422747     0.02300
H715        H  0.65413470  0.06157366  0.36892612     0.15300
H716        H  0.73097739  0.16125803  0.33144264     0.15300
C717        C  0.69623366  0.13221595  0.27764388     0.37000
C718        C  0.68858460  0.09104276  0.42252408     0.36900
N719        N  0.69797466  0.14085657  0.24832171    -0.43400
N720        N  0.68631068  0.08267896  0.45188377    -0.43400
C721        C  0.52241115  0.87106385  0.18611688     0.00200
C722        C  0.51548018  0.87674453  0.22212125    -0.11700
C723        C  0.54011715  0.89431607  0.24362099     0.02400
C724        C  0.57269356  0.90601355  0.22924724     0.00100
C725        C  0.57973275  0.90047718  0.19326206    -0.11600
C726        C  0.55488930  0.88304635  0.17162236     0.02300
H727        H  0.49047079  0.86783288  0.23337835     0.15300
H728        H  0.60482902  0.90939220  0.18222573     0.15300
C729        C  0.56409398  0.87613205  0.13523407     0.37000
C730        C  0.53095952  0.90091296  0.28011826     0.36900
N731        N  0.57158003  0.87036921  0.10612570    -0.43400
N732        N  0.52337059  0.90637390  0.30926101    -0.43400
C733        C  0.32896289  0.28476668  0.04524805     0.00200
C734        C  0.32021560  0.24955013  0.05253664    -0.11700
C735        C  0.34343908  0.22815897  0.07237256     0.02400
C736        C  0.37556920  0.24237714  0.08577085     0.00100
C737        C  0.38434234  0.27747630  0.07805696    -0.11600
C738        C  0.36171082  0.29844476  0.05745445     0.02300
H739        H  0.29520590  0.23886192  0.04283380     0.15300
H740        H  0.40948542  0.28825910  0.08734676     0.15300
C741        C  0.37331705  0.33343650  0.04784329     0.37000
C742        C  0.33333072  0.19214065  0.07948145     0.36900
N743        N  0.38286361  0.36127840  0.03972524    -0.43400
N744        N  0.32536908  0.16323279  0.08519363    -0.43400
C745        C  0.52168499  0.23559555  0.08044392     0.00200
C746        C  0.55637714  0.24031654  0.09328482    -0.11700
C747        C  0.58117572  0.25997834  0.07408861     0.02400
C748        C  0.57071611  0.27658125  0.04217821     0.00100
C749        C  0.53625040  0.27046583  0.02870075    -0.11600
C750        C  0.51186722  0.24975501  0.04737658     0.02300
H751        H  0.56406257  0.22859496  0.11838483     0.15300
H752        H  0.52793113  0.28289247  0.00416840     0.15300
C753        C  0.47645240  0.24475809  0.03300990     0.37000
C754        C  0.61727492  0.26207305  0.08734958     0.36900
N755        N  0.44811510  0.24055835  0.02152316    -0.43400
N756        N  0.64622549  0.26370303  0.09793054    -0.43400
C757        C  0.52409923  0.13549735  0.19567341     0.00200
C758        C  0.52363601  0.13895787  0.23269867    -0.11700
C759        C  0.54712300  0.11971266  0.25400401     0.02400
C760        C  0.57200198  0.09686149  0.23820775     0.00100
C761        C  0.57285832  0.09362311  0.20126570    -0.11600
C762        C  0.54922816  0.11270325  0.17989715     0.02300
H763        H  0.50417000  0.15602937  0.24514597     0.15300
H764        H  0.59232186  0.07634348  0.18910133     0.15300
C765        C  0.55220774  0.10916336  0.14197724     0.37000
C766        C  0.54413294  0.12264254  0.29198743     0.36900
N767        N  0.55476476  0.10625309  0.11160681    -0.43400
N768        N  0.54165243  0.12484711  0.32242347    -0.43400
C769        C  0.22316095  0.09645018  0.32508258     0.00200
C770        C  0.20758518  0.12874353  0.31512049    -0.11700
C771        C  0.18732221  0.14835037  0.33916867     0.02400
C772        C  0.18179865  0.13536133  0.37359892     0.00100
C773        C  0.19626414  0.10276867  0.38338206    -0.11600
C774        C  0.21724056  0.08349264  0.35973599     0.02300
H775        H  0.21167084  0.13891906  0.28861614     0.15300
H776        H  0.19235120  0.09304519  0.41010722     0.15300
C777        C  0.23420513  0.05178566  0.37261862     0.37000
C778        C  0.17217935  0.18155444  0.32800020     0.36900
N779        N  0.24781078  0.02641060  0.38298963    -0.43400
N780        N  0.15991607  0.20815576  0.31921640    -0.43400
C781        C  0.37574991  0.13972052  0.20132344     0.00200
C782        C  0.35210607  0.11659050  0.18426150    -0.11700
C783        C  0.32690802  0.09744807  0.20330128     0.02400
C784        C  0.32503643  0.10102977  0.24040468     0.00100
C785        C  0.34826551  0.12444439  0.25764721    -0.11600
C786        C  0.37369289  0.14365052  0.23851932     0.02300
H787        H  0.35306752  0.11358704  0.15572853     0.15300
H788        H  0.34702056  0.12712813  0.28619265     0.15300
C789        C  0.39820784  0.16577216  0.25796745     0.37000
C790        C  0.30265441  0.07498884  0.18389860     0.36900
N791        N  0.41787058  0.18337264  0.27367795    -0.43400
N792        N  0.28329976  0.05696860  0.16831007    -0.43400
C793        C  0.23030131  0.90510510  0.31790787     0.00200
C794        C  0.19372930  0.91247595  0.32091839    -0.11700
C795        C  0.17223500  0.89424828  0.34507080     0.02400
C796        C  0.18738720  0.86790806  0.36701340     0.00100
C797        C  0.22397645  0.86038191  0.36357222    -0.11600
C798        C  0.24539995  0.87869570  0.33954033     0.02300
H799        H  0.18187528  0.93258376  0.30418238     0.15300
H800        H  0.23626045  0.84056370  0.38033224     0.15300
C801        C  0.28308413  0.87088010  0.33876821     0.37000
C802        C  0.13476479  0.90289575  0.34606896     0.36900
N803        N  0.31327219  0.86460828  0.33798508    -0.43400
N804        N  0.10479239  0.91012285  0.34666714    -0.43400
C805        C  0.32127328  0.91183840  0.22099691     0.00200
C806        C  0.31156741  0.88052997  0.20345622    -0.11700
C807        C  0.33659860  0.86108655  0.18409966     0.02400
C808        C  0.37192858  0.87332414  0.18119582     0.00100
C809        C  0.38157849  0.90497339  0.19761586    -0.11600
C810        C  0.35695148  0.92393962  0.21790050     0.02300
H811        H  0.28439771  0.87092963  0.20523295     0.15300
H812        H  0.40890755  0.91417926  0.19572525     0.15300
C813        C  0.36990901  0.95434617  0.23697342     0.37000
C814        C  0.32537101  0.82875133  0.16733310     0.36900
N815        N  0.38051525  0.97866474  0.25217930    -0.43400
N816        N  0.31622665  0.80281505  0.15402529    -0.43400
C817        C  0.70549318  0.86691088  0.37791594     0.00200
C818        C  0.66953600  0.85762865  0.37264324    -0.11700
C819        C  0.64818010  0.87508506  0.34779827     0.02400
C820        C  0.66267468  0.90254086  0.32712720     0.00100
C821        C  0.69861049  0.91186699  0.33218092    -0.11600
C822        C  0.72002692  0.89450461  0.35718009     0.02300
H823        H  0.65766752  0.83682890  0.38838877     0.15300
H824        H  0.71011611  0.93276125  0.31627839     0.15300
C825        C  0.75680321  0.90542988  0.36026472     0.37000
C826        C  0.61116574  0.86493777  0.34515460     0.36900
N827        N  0.78622745  0.91438120  0.36259015    -0.43400
N828        N  0.58159932  0.85644669  0.34305910    -0.43400
C829        C  0.81655994  0.75623538  0.52345989     0.00200
C830        C  0.83887983  0.77372690  0.54769288    -0.11700
C831        C  0.85769093  0.75497911  0.57370827     0.02400
C832        C  0.85434220  0.71797809  0.57571587     0.00100
C833        C  0.83234316  0.70051082  0.55127586    -0.11600
C834        C  0.81369738  0.71911634  0.52522230     0.02300
H835        H  0.84121847  0.80218925  0.54668684     0.15300
H836        H  0.83033241  0.67200309  0.55208003     0.15300
C837        C  0.79320033  0.69914731  0.49973254     0.37000
C838        C  0.87952567  0.77436825  0.59849051     0.36900
N839        N  0.77689866  0.68313881  0.47924355    -0.43400
N840        N  0.89722027  0.78980579  0.61826823    -0.43400
C841        C  0.71243080  0.86617970  0.52807531     0.00200
C842        C  0.70870536  0.85138154  0.56187629    -0.11700
C843        C  0.68991000  0.86920465  0.58839810     0.02400
C844        C  0.67354809  0.90189389  0.58071201     0.00100
C845        C  0.67795137  0.91674854  0.54686858    -0.11600
C846        C  0.69750583  0.89939416  0.52078107     0.02300
H847        H  0.72075236  0.82601223  0.56759136     0.15300
H848        H  0.66535125  0.94169009  0.54047190     0.15300
C849        C  0.70064684  0.91543424  0.48623186     0.37000
C850        C  0.68874303  0.85398639  0.62341328     0.36900
N851        N  0.70324074  0.92818073  0.45852394    -0.43400
N852        N  0.68776928  0.84193424  0.65153964    -0.43400
C853        C  0.81073348  0.75748328  0.37459140     0.00200
C854        C  0.80976209  0.72052020  0.37638424    -0.11700
C855        C  0.82804190  0.69990473  0.35167924     0.02400
C856        C  0.84756343  0.71629447  0.32440901     0.00100
C857        C  0.84830461  0.75317274  0.32234565    -0.11600
C858        C  0.82995945  0.77383550  0.34697686     0.02300
H859        H  0.79531440  0.70768084  0.39761529     0.15300
H860        H  0.86278451  0.76581950  0.30101635     0.15300
C861        C  0.82998583  0.81160065  0.34230084     0.37000
C862        C  0.82738112  0.66205615  0.35551306     0.36900
N863        N  0.82986494  0.84184380  0.33839567    -0.43400
N864        N  0.82694814  0.63172219  0.35859043    -0.43400
C865        C  0.36828189  0.75891740  0.81361243     0.00200
C866        C  0.34340716  0.77776383  0.83403496    -0.11700
C867        C  0.31622036  0.76025617  0.85251900     0.02400
C868        C  0.31421599  0.72316551  0.85150980     0.00100
C869        C  0.33892357  0.70443411  0.83106890    -0.11600
C870        C  0.36547496  0.72180597  0.81197897     0.02300
H871        H  0.34470579  0.80629122  0.83492958     0.15300
H872        H  0.33766770  0.67588086  0.83028415     0.15300
C873        C  0.38979533  0.70052094  0.79163490     0.37000
C874        C  0.28976090  0.78083688  0.87092828     0.36900
N875        N  0.40888289  0.68313650  0.77519138    -0.43400
N876        N  0.26829655  0.79714644  0.88552940    -0.43400
C877        C  0.51979163  0.86555924  0.70603199     0.00200
C878        C  0.52088631  0.86186104  0.66900362    -0.11700
C879        C  0.54592959  0.88023246  0.64858396     0.02400
C880        C  0.57070555  0.90296094  0.66512528     0.00100
C881        C  0.56973432  0.90667517  0.70207100    -0.11600
C882        C  0.54490079  0.88808410  0.72257749     0.02300
H883        H  0.50177100  0.84487121  0.65580747     0.15300
H884        H  0.58910355  0.92356328  0.71505378     0.15300
C885        C  0.54710145  0.89134440  0.76059601     0.37000
C886        C  0.54499278  0.87600760  0.61061850     0.36900
N887        N  0.54903738  0.89379949  0.79107013    -0.43400
N888        N  0.54427291  0.87255234  0.58019837    -0.43400
C889        C  0.52138165  0.75698845  0.81131625     0.00200
C890        C  0.54424422  0.77466562  0.83501760    -0.11700
C891        C  0.57138736  0.75664161  0.85322044     0.02400
C892        C  0.57552694  0.71995851  0.84858458     0.00100
C893        C  0.55310505  0.70241298  0.82464288    -0.11600
C894        C  0.52657042  0.72040294  0.80584681     0.02300
H895        H  0.54138420  0.80282908  0.83888778     0.15300
H896        H  0.55605115  0.67422696  0.82090068     0.15300
C897        C  0.50504373  0.70011006  0.78156291     0.37000
C898        C  0.59558687  0.77663153  0.87520720     0.36900
N899        N  0.48834897  0.68349781  0.76190731    -0.43400
N900        N  0.61510570  0.79279877  0.89256097    -0.43400
C901        C  0.36939939  0.86662806  0.70757048     0.00200
C902        C  0.37505350  0.87079522  0.67117842    -0.11700
C903        C  0.35112150  0.88984588  0.65031173     0.02400
C904        C  0.32014967  0.90425790  0.66557431     0.00100
C905        C  0.31436576  0.90039545  0.70205435    -0.11600
C906        C  0.33882774  0.88173704  0.72319965     0.02300
H907        H  0.39880973  0.85982037  0.65912236     0.15300
H908        H  0.29061819  0.91159537  0.71385642     0.15300
C909        C  0.33122209  0.87709882  0.76034310     0.37000
C910        C  0.35985054  0.89581222  0.61360079     0.36900
N911        N  0.32503961  0.87324891  0.79008413    -0.43400
N912        N  0.36716348  0.90103565  0.58434027    -0.43400
C913        C  0.70675005  0.57272973  0.81360369     0.00200
C914        C  0.66965090  0.57556505  0.80880079    -0.11700
C915        C  0.64968137  0.60062666  0.82735784     0.02400
C916        C  0.66693921  0.62455352  0.85038054     0.00100
C917        C  0.70380929  0.62136303  0.85580308    -0.11600
C918        C  0.72368744  0.59559730  0.83807369     0.02300
H919        H  0.65596717  0.55753009  0.79112072     0.15300
H920        H  0.71717778  0.63923580  0.87387412     0.15300
C921        C  0.76140965  0.59365655  0.84549705     0.37000
C922        C  0.61129395  0.59991290  0.82385520     0.36900
N923        N  0.79156397  0.59196309  0.85187095    -0.43400
N924        N  0.58052857  0.59918771  0.82138090    -0.43400
C925        C  0.81230176  0.42490551  0.70300769     0.00200
C926        C  0.82555764  0.43465051  0.66972733    -0.11700
C927        C  0.84545754  0.41084691  0.64955466     0.02400
C928        C  0.85193023  0.37672533  0.66269133     0.00100
C929        C  0.83827094  0.36681857  0.69572099    -0.11600
C930        C  0.81851789  0.39061992  0.71596928     0.02300
H931        H  0.82075695  0.46104743  0.65974730     0.15300
H932        H  0.84289862  0.34033756  0.70555242     0.15300
C933        C  0.80367298  0.37882685  0.74914886     0.37000
C934        C  0.85905241  0.42190868  0.61563195     0.36900
N935        N  0.79159890  0.36907978  0.77554958    -0.43400
N936        N  0.86995103  0.43080445  0.58843956    -0.43400
C937        C  0.70499465  0.42384916  0.81215275     0.00200
C938        C  0.72277455  0.40440141  0.83867730    -0.11700
C939        C  0.70483410  0.37906351  0.85898677     0.02400
C940        C  0.66833005  0.37246833  0.85271429     0.00100
C941        C  0.65056422  0.39197844  0.82644285    -0.11600
C942        C  0.66825133  0.41743298  0.80636289     0.02300
H943        H  0.75092085  0.40887558  0.84359758     0.15300
H944        H  0.62230559  0.38773282  0.82197878     0.15300
C945        C  0.64731993  0.43723885  0.78109612     0.37000
C946        C  0.72467271  0.35997641  0.88561661     0.36900
N947        N  0.63024571  0.45301145  0.76102157    -0.43400
N948        N  0.74062081  0.34499010  0.90715724    -0.43400
C949        C  0.81532425  0.57195931  0.70468199     0.00200
C950        C  0.81252331  0.57237819  0.66756928    -0.11700
C951        C  0.83235779  0.59617576  0.64720359     0.02400
C952        C  0.85520328  0.62064777  0.66392837     0.00100
C953        C  0.85820688  0.62024684  0.70092051    -0.11600
C954        C  0.83861417  0.59624494  0.72134245     0.02300
H955        H  0.79533133  0.55353505  0.65431193     0.15300
H956        H  0.87550892  0.63917517  0.71392213     0.15300
C957        C  0.84222308  0.59798314  0.75933661     0.37000
C958        C  0.82983219  0.59416841  0.60910378     0.36900
N959        N  0.84531130  0.59943557  0.78977598    -0.43400
N960        N  0.82802772  0.59259513  0.57856520    -0.43400
loop_ 
_geom_bond_atom_site_label_1 
_geom_bond_atom_site_label_2 
_geom_bond_distance 
_geom_bond_site_symmetry_2 
_ccdc_geom_bond_type 
O1           Ni9   1.914       .  S
O1           C11   1.281       .  A
O2           Ni9   1.919       .  S
O2           C12   1.281       .  A
O3           Ni9   1.917       .  S
O3           C13   1.281       .  A
O4           Ni9   1.916       .  S
O4           C14   1.280       .  A
O5          Ni10   1.914       .  S
O5           C14   1.279       .  A
O6          Ni10   1.919       .  S
O6           C13   1.282       .  A
O7          Ni10   1.920       .  S
O7           C12   1.283       .  A
O8          Ni10   1.920       .  S
O8           C11   1.282       .  A
Ni9         Ni10   2.386       .  S
C11         C937   1.489       .  S
C12         C949   1.487       .  S
C13         C913   1.490       .  S
C14         C925   1.468       .  S
O15         Ni23   1.922       .  S
O15          C25   1.281       .  A
O16         Ni23   1.926       .  S
O16          C26   1.284       .  A
O17         Ni23   1.923       .  S
O17          C27   1.283       .  A
O18         Ni23   1.920       .  S
O18          C28   1.282       .  A
O19         Ni24   1.917       .  S
O19          C28   1.282       .  A
O20         Ni24   1.918       .  S
O20          C27   1.282       .  A
O21         Ni24   1.913       .  S
O21          C26   1.280       .  A
O22         Ni24   1.909       .  S
O22          C25   1.280       .  A
Ni23        Ni24   2.386       .  S
C25         C901   1.475       .  S
C26         C889   1.491       .  S
C27         C877   1.490       .  S
C28         C865   1.485       .  S
O29         Ni37   1.913       .  S
O29          C39   1.282       .  A
O30         Ni37   1.905       .  S
O30          C40   1.279       .  A
O31         Ni37   1.914       .  S
O31          C41   1.279       .  A
O32         Ni37   1.915       .  S
O32          C42   1.281       .  A
O33         Ni38   1.916       .  S
O33          C42   1.281       .  A
O34         Ni38   1.914       .  S
O34          C41   1.280       .  A
O35         Ni38   1.921       .  S
O35          C40   1.282       .  A
O36         Ni38   1.919       .  S
O36          C39   1.281       .  A
Ni37        Ni38   2.388       .  S
C39         C817   1.491       .  S
C40         C829   1.480       .  S
C41         C841   1.467       .  S
C42         C853   1.479       .  S
C43         C805   1.497       .  S
C43          C44   1.407       .  A
C43          C48   1.403       .  A
C44          C45   1.416       .  A
C44          H49   1.079       .  S
C45          C54   1.508   1_565  S
C45          C46   1.410       .  A
C46          C47   1.401       .  A
C46          H50   1.080       .  S
C47         C793   1.486       .  S
C47          C48   1.401       .  A
C48          H51   1.083       .  S
C52         C784   1.479       .  S
C52          C53   1.400       .  A
C52          C57   1.397       .  A
C53          C54   1.409       .  A
C53          H58   1.079       .  S
C54          C55   1.415       .  A
C55          C56   1.408       .  A
C55          H59   1.079       .  S
C56         C769   1.490       .  S
C56          C57   1.401       .  A
C57          H60   1.084       .  S
O61         Ni69   1.907       .  S
O61          C71   1.281       .  A
O62         Ni69   1.909       .  S
O62          C72   1.278       .  A
O63         Ni69   1.917       .  S
O63          C73   1.282       .  A
O64         Ni69   1.918       .  S
O64          C74   1.281       .  A
O65         Ni70   1.915       .  S
O65          C74   1.281       .  A
O66         Ni70   1.907       .  S
O66          C73   1.280       .  A
O67         Ni70   1.911       .  S
O67          C72   1.280       .  A
O68         Ni70   1.916       .  S
O68          C71   1.281       .  A
Ni69        Ni70   2.390       .  S
C71         C781   1.479       .  S
C72         C745   1.462       .  S
C73         C757   1.477       .  S
C74         C736   1.477       .  S
C75         C724   1.477       .  S
C75          C76   1.399       .  A
C75          C80   1.397       .  A
C76          C77   1.415       .  A
C76          H81   1.078       .  S
C77          C86   1.510   1_565  S
C77          C78   1.414       .  A
C78          C79   1.404       .  A
C78          H82   1.078       .  S
C79         C820   1.489       .  S
C79          C80   1.401       .  A
C80          H83   1.083       .  S
C84         C760   1.475       .  S
C84          C85   1.400       .  A
C84          C89   1.394       .  A
C85          C86   1.413       .  A
C85          H90   1.078       .  S
C86          C87   1.415       .  A
C87          C88   1.403       .  A
C87          H91   1.079       .  S
C88         C709   1.478       .  S
C88          C89   1.395       .  A
C89          H92   1.084       .  S
O93        Ni101   1.912       .  S
O93         C103   1.279       .  A
O94        Ni101   1.912       .  S
O94         C104   1.279       .  A
O95        Ni101   1.930       .  S
O95         C105   1.284       .  A
O96        Ni101   1.926       .  S
O96         C106   1.283       .  A
O97        Ni102   1.914       .  S
O97         C106   1.280       .  A
O98        Ni102   1.912       .  S
O98         C105   1.280       .  A
O99        Ni102   1.918       .  S
O99         C104   1.282       .  A
O100       Ni102   1.912       .  S
O100        C103   1.279       .  A
Ni101      Ni102   2.390       .  S
C103        C712   1.463       .  S
C104        C688   1.473       .  S
C105        C697   1.493       .  S
C106        C673   1.477       .  S
C107        C880   1.490       .  S
C107        C108   1.400       .  A
C107        C112   1.407       .  A
C108        C109   1.401       .  A
C108        H113   1.083       .  S
C109        C844   1.486       .  S
C109        C110   1.402       .  A
C110        C111   1.410       .  A
C110        H114   1.079       .  S
C111        C118   1.514   1_565  S
C111        C112   1.420       .  A
C112        H115   1.078       .  S
C116        C700   1.492       .  S
C116        C117   1.406       .  A
C116        C121   1.399       .  A
C117        C118   1.422       .  A
C117        H122   1.078       .  S
C118        C119   1.412       .  A
C119        C120   1.401       .  A
C119        H123   1.078       .  S
C120        C661   1.482       .  S
C120        C121   1.399       .  A
C121        H124   1.084       .  S
C125        C904   1.477       .  S
C125        C126   1.398       .  A
C125        C130   1.400       .  A
C126        C127   1.400       .  A
C126        H131   1.083       .  S
C127        C649   1.493       .  S
C127        C128   1.407       .  A
C128        C129   1.417       .  A
C128        H132   1.079       .  S
C129        C136   1.509   1_565  S
C129        C130   1.413       .  A
C130        H133   1.079       .  S
C134        C628   1.484       .  S
C134        C135   1.402       .  A
C134        C139   1.400       .  A
C135        C136   1.414       .  A
C135        H140   1.078       .  S
C136        C137   1.417       .  A
C137        C138   1.405       .  A
C137        H141   1.079       .  S
C138        C637   1.487       .  S
C138        C139   1.397       .  A
C139        H142   1.084       .  S
O143       Ni151   1.916       .  S
O143        C153   1.282       .  A
O144       Ni151   1.911       .  S
O144        C154   1.282       .  A
O145       Ni151   1.914       .  S
O145        C155   1.281       .  A
O146       Ni151   1.915       .  S
O146        C156   1.281       .  A
O147       Ni152   1.919       .  S
O147        C156   1.282       .  A
O148       Ni152   1.919       .  S
O148        C155   1.281       .  A
O149       Ni152   1.918       .  S
O149        C154   1.281       .  A
O150       Ni152   1.921       .  S
O150        C153   1.282       .  A
Ni151      Ni152   2.385       .  S
C153        C640   1.491       .  S
C154        C601   1.485       .  S
C155        C664   1.482       .  S
C156        C613   1.486       .  S
O157       Ni165   1.916       .  S
O157        C167   1.280       .  A
O158       Ni165   1.913       .  S
O158        C168   1.281       .  A
O159       Ni165   1.908       .  S
O159        C169   1.280       .  A
O160       Ni165   1.909       .  S
O160        C170   1.279       .  A
O161       Ni166   1.924       .  S
O161        C170   1.284       .  A
O162       Ni166   1.921       .  S
O162        C169   1.282       .  A
O163       Ni166   1.913       .  S
O163        C168   1.281       .  A
O164       Ni166   1.914       .  S
O164        C167   1.279       .  A
Ni165      Ni166   2.386       .  S
C167        C772   1.469       .  S
C168        C577   1.485       .  S
C169        C625   1.485       .  S
C170        C592   1.487       .  S
C171        C604   1.481       .  S
C171        C172   1.395       .  A
C171        C176   1.398       .  A
C172        C173   1.399       .  A
C172        H177   1.084       .  S
C173        C940   1.487       .  S
C173        C174   1.407       .  A
C174        C175   1.418       .  A
C174        H178   1.076       .  S
C175        C182   1.511       .  S
C175        C176   1.414       .  A
C176        H179   1.080       .  S
C180        C748   1.484       .  S
C180        C181   1.401   1_554  A
C180        C185   1.397       .  A
C181        C182   1.415       .  A
C181        H186   1.079       .  S
C182        C183   1.415       .  A
C183        C184   1.405   1_556  A
C183        H187   1.077       .  S
C184        C568   1.483       .  S
C184        C185   1.395       .  A
C185        H188   1.083       .  S
O189       Ni197   1.917       .  S
O189        C199   1.282       .  A
O190       Ni197   1.918       .  S
O190        C200   1.280       .  A
O191       Ni197   1.918       .  S
O191        C201   1.282       .  A
O192       Ni197   1.925       .  S
O192        C202   1.283       .  A
O193       Ni198   1.911       .  S
O193        C202   1.280       .  A
O194       Ni198   1.912       .  S
O194        C201   1.280       .  A
O195       Ni198   1.913       .  S
O195        C200   1.279       .  A
O196       Ni198   1.913       .  S
O196        C199   1.281       .  A
Ni197      Ni198   2.388       .  S
C199        C565   1.485       .  S
C200        C529   1.469       .  S
C201        C556   1.480       .  S
C202        C541   1.487       .  S
C203        C892   1.488       .  S
C203        C204   1.399       .  A
C203        C208   1.403       .  A
C204        C205   1.400       .  A
C204        H209   1.083       .  S
C205        C916   1.488       .  S
C205        C206   1.402       .  A
C206        C207   1.415       .  A
C206        H210   1.090       .  S
C207        C216   1.514       .  S
C207        C208   1.417       .  A
C208        H211   1.080       .  S
C212        C517   1.496       .  S
C212        C213   1.402       .  A
C212        C217   1.408   1_554  A
C213        C214   1.398       .  A
C213        H218   1.082       .  S
C214        C553   1.480       .  S
C214        C215   1.399   1_554  A
C215        C216   1.413       .  A
C215        H219   1.091       .  S
C216        C217   1.416       .  A
C217        H220   1.080       .  S
C221        C868   1.485       .  S
C221        C222   1.404       .  A
C221        C226   1.395       .  A
C222        C223   1.420       .  A
C222        H227   1.076       .  S
C223        C232   1.517       .  S
C223        C224   1.417       .  A
C224        C225   1.402       .  A
C224        H228   1.077       .  S
C225        C508   1.478       .  S
C225        C226   1.394       .  A
C226        H229   1.085       .  S
C230        C493   1.476       .  S
C230        C231   1.398   1_554  A
C230        C235   1.396       .  A
C231        C232   1.415       .  A
C231        H236   1.076       .  S
C232        C233   1.419       .  A
C233        C234   1.407   1_556  A
C233        H237   1.077       .  S
C234        C484   1.488       .  S
C234        C235   1.400       .  A
C235        H238   1.084       .  S
O239       Ni247   1.921       .  S
O239        C249   1.281       .  A
O240       Ni247   1.920       .  S
O240        C250   1.282       .  A
O241       Ni247   1.909       .  S
O241        C251   1.279       .  A
O242       Ni247   1.907       .  S
O242        C252   1.279       .  A
O243       Ni248   1.923       .  S
O243        C252   1.282       .  A
O244       Ni248   1.925       .  S
O244        C251   1.283       .  A
O245       Ni248   1.918       .  S
O245        C250   1.281       .  A
O246       Ni248   1.919       .  S
O246        C249   1.280       .  A
Ni247      Ni248   2.389       .  S
C249        C808   1.474       .  S
C250        C520   1.476       .  S
C251        C721   1.476       .  S
C252        C496   1.473       .  S
C253        C616   1.483       .  S
C253        C254   1.404       .  A
C253        C258   1.400       .  A
C254        C255   1.414       .  A
C254        H259   1.079       .  S
C255        C266   1.509       .  S
C255        C256   1.413       .  A
C256        C257   1.404       .  A
C256        H260   1.080       .  S
C257        C469   1.492       .  S
C257        C258   1.401       .  A
C258        H261   1.083       .  S
C262        C733   1.480       .  S
C262        C263   1.401       .  A
C262        C267   1.402   1_554  A
C263        C264   1.402       .  A
C263        H268   1.084       .  S
C264        C457   1.492       .  S
C264        C265   1.402   1_554  A
C265        C266   1.415       .  A
C265        H269   1.080       .  S
C266        C267   1.414       .  A
C267        H270   1.079       .  S
C271        C685   1.493       .  S
C271        C272   1.406       .  A
C271        C276   1.402       .  A
C272        C273   1.414       .  A
C272        H277   1.079       .  S
C273        C282   1.508       .  S
C273        C274   1.412       .  A
C274        C275   1.398       .  A
C274        H278   1.078       .  S
C275        C928   1.471       .  S
C275        C276   1.394       .  A
C276        H279   1.083       .  S
C280        C580   1.481       .  S
C280        C281   1.401   1_455  A
C280        C285   1.395       .  A
C281        C282   1.414       .  A
C281        H286   1.079       .  S
C282        C283   1.415       .  A
C283        C284   1.404   1_655  A
C283        H287   1.078       .  S
C284        C448   1.480       .  S
C284        C285   1.396       .  A
C285        H288   1.084       .  S
O289       Ni297   1.908       .  S
O289        C299   1.280       .  A
O290       Ni297   1.909       .  S
O290        C300   1.280       .  A
O291       Ni297   1.922       .  S
O291        C301   1.282       .  A
O292       Ni297   1.921       .  S
O292        C302   1.282       .  A
O293       Ni298   1.916       .  S
O293        C302   1.280       .  A
O294       Ni298   1.918       .  S
O294        C301   1.280       .  A
O295       Ni298   1.917       .  S
O295        C300   1.282       .  A
O296       Ni298   1.917       .  S
O296        C299   1.282       .  A
Ni297      Ni298   2.389       .  S
C299        C445   1.480       .  S
C300        C505   1.481       .  S
C301        C436   1.474       .  S
C302        C472   1.472       .  S
C303        C832   1.484       .  S
C303        C304   1.397       .  A
C303        C308   1.402       .  A
C304        C305   1.397       .  A
C304        H309   1.084       .  S
C305        C952   1.485       .  S
C305        C306   1.406       .  A
C306        C307   1.420       .  A
C306        H310   1.078       .  S
C307        C314   1.517       .  S
C307        C308   1.415       .  A
C308        H311   1.076       .  S
C312        C421   1.492       .  S
C312        C313   1.403   1_455  A
C312        C317   1.402       .  A
C313        C314   1.417       .  A
C313        H318   1.076       .  S
C314        C315   1.414       .  A
C315        C316   1.407   1_655  A
C315        H319   1.078       .  S
C316        C433   1.493       .  S
C316        C317   1.404       .  A
C317        H320   1.083       .  S
O321       Ni329   1.924       .  S
O321        C331   1.283       .  A
O322       Ni329   1.930       .  S
O322        C332   1.284       .  A
O323       Ni329   1.922       .  S
O323        C333   1.282       .  A
O324       Ni329   1.923       .  S
O324        C334   1.282       .  A
O325       Ni330   1.917       .  S
O325        C334   1.282       .  A
O326       Ni330   1.918       .  S
O326        C333   1.282       .  A
O327       Ni330   1.912       .  S
O327        C332   1.281       .  A
O328       Ni330   1.911       .  S
O328        C331   1.281       .  A
Ni329      Ni330   2.383       .  S
C331        C796   1.489       .  S
C332        C424   1.493       .  S
C333        C652   1.494       .  S
C334        C409   1.487       .  S
C335        C856   1.480       .  S
C335        C336   1.396       .  A
C335        C340   1.403       .  A
C336        C337   1.398       .  A
C336        H341   1.084       .  S
C337        C532   1.488       .  S
C337        C338   1.406       .  A
C338        C339   1.416       .  A
C338        H342   1.079       .  S
C339        C346   1.516       .  S
C339        C340   1.416       .  A
C340        H343   1.078       .  S
C344        C412   1.489       .  S
C344        C345   1.404   1_455  A
C344        C349   1.400       .  A
C345        C346   1.417       .  A
C345        H350   1.077       .  S
C346        C347   1.418       .  A
C347        C348   1.405   1_655  A
C347        H351   1.078       .  S
C348        C400   1.492       .  S
C348        C349   1.401       .  A
C349        H352   1.084       .  S
C353        C676   1.496       .  S
C353        C354   1.403       .  A
C353        C358   1.403       .  A
C354        C355   1.412       .  A
C354        H359   1.080       .  S
C355        C364   1.507       .  S
C355        C356   1.412       .  A
C356        C357   1.406       .  A
C356        H360   1.080       .  S
C357        C544   1.486       .  S
C357        C358   1.402       .  A
C358        H361   1.083       .  S
C362        C589   1.485       .  S
C362        C363   1.398   1_455  A
C362        C367   1.397       .  A
C363        C364   1.412       .  A
C363        H368   1.078       .  S
C364        C365   1.415       .  A
C365        C366   1.408   1_655  A
C365        H369   1.080       .  S
C366        C388   1.487       .  S
C366        C367   1.403       .  A
C367        H370   1.084       .  S
O371       Ni379   1.914       .  S
O371        C381   1.281       .  A
O372       Ni379   1.914       .  S
O372        C382   1.282       .  A
O373       Ni379   1.911       .  S
O373        C383   1.280       .  A
O374       Ni379   1.912       .  S
O374        C384   1.280       .  A
O375       Ni380   1.932       .  S
O375        C384   1.285       .  A
O376       Ni380   1.931       .  S
O376        C383   1.284       .  A
O377       Ni380   1.922       .  S
O377        C382   1.281       .  A
O378       Ni380   1.920       .  S
O378        C381   1.281       .  A
Ni379      Ni380   2.383       .  S
C381        C481   1.483       .  S
C382        C385   1.486       .  S
C383        C460   1.494       .  S
C384        C397   1.496       .  S
C385        C386   1.403       .  A
C385        C390   1.417       .  A
C386        C387   1.396       .  A
C386        H391   1.085       .  S
C387        C388   1.414       .  A
C387        C394   1.445       .  S
C388        C389   1.405       .  A
C389        C390   1.406       .  A
C389        H392   1.084       .  S
C390        C393   1.444       .  S
C393        N395   1.157       .  T
C394        N396   1.157       .  T
C397        C398   1.408       .  A
C397        C402   1.420       .  A
C398        C399   1.405       .  A
C398        H403   1.084       .  S
C399        C400   1.413       .  A
C399        C406   1.444       .  S
C400        C401   1.403       .  A
C401        C402   1.401       .  A
C401        H404   1.085       .  S
C402        C405   1.444       .  S
C405        N407   1.157       .  T
C406        N408   1.157   1_455  T
C409        C410   1.404       .  A
C409        C414   1.416       .  A
C410        C411   1.399       .  A
C410        H415   1.085       .  S
C411        C412   1.413       .  A
C411        C418   1.445       .  S
C412        C413   1.404       .  A
C413        C414   1.405       .  A
C413        H416   1.085       .  S
C414        C417   1.443       .  S
C417        N419   1.157       .  T
C418        N420   1.157       .  T
C421        C422   1.407       .  A
C421        C426   1.411       .  A
C422        C423   1.405       .  A
C422        H427   1.085       .  S
C423        C424   1.416       .  A
C423        C430   1.444       .  S
C424        C425   1.408       .  A
C425        C426   1.401       .  A
C425        H428   1.085       .  S
C426        C429   1.444       .  S
C429        N431   1.157       .  T
C430        N432   1.157       .  T
C433        C434   1.408       .  A
C433        C438   1.416       .  A
C434        C435   1.400       .  A
C434        H439   1.085       .  S
C435        C436   1.407       .  A
C435        C442   1.445       .  S
C436        C437   1.403       .  A
C437        C438   1.405       .  A
C437        H440   1.085       .  S
C438        C441   1.444       .  S
C441        N443   1.157       .  T
C442        N444   1.157       .  T
C445        C446   1.408       .  A
C445        C450   1.413       .  A
C446        C447   1.400       .  A
C446        H451   1.085       .  S
C447        C448   1.408       .  A
C447        C454   1.443       .  S
C448        C449   1.404       .  A
C449        C450   1.397       .  A
C449        H452   1.085       .  S
C450        C453   1.444       .  S
C453        N455   1.157       .  T
C454        N456   1.157       .  T
C457        C458   1.407       .  A
C457        C462   1.410       .  A
C458        C459   1.404       .  A
C458        H463   1.085       .  S
C459        C460   1.416       .  A
C459        C466   1.444       .  S
C460        C461   1.410       .  A
C461        C462   1.401       .  A
C461        H464   1.084       .  S
C462        C465   1.444       .  S
C465        N467   1.157       .  T
C466        N468   1.157       .  T
C469        C470   1.408       .  A
C469        C474   1.416       .  A
C470        C471   1.398       .  A
C470        H475   1.085       .  S
C471        C472   1.407       .  A
C471        C478   1.445       .  S
C472        C473   1.402       .  A
C473        C474   1.404       .  A
C473        H476   1.085       .  S
C474        C477   1.444       .  S
C477        N479   1.157       .  T
C478        N480   1.157       .  T
C481        C482   1.403       .  A
C481        C486   1.414       .  A
C482        C483   1.398       .  A
C482        H487   1.085       .  S
C483        C484   1.414       .  A
C483        C490   1.443       .  S
C484        C485   1.405       .  A
C485        C486   1.404       .  A
C485        H488   1.085       .  S
C486        C489   1.444       .  S
C489        N491   1.157       .  T
C490        N492   1.157       .  T
C493        C494   1.403       .  A
C493        C498   1.408       .  A
C494        C495   1.402       .  A
C494        H499   1.085       .  S
C495        C496   1.411       .  A
C495        C502   1.444       .  S
C496        C497   1.403       .  A
C497        C498   1.397       .  A
C497        H500   1.085       .  S
C498        C501   1.443       .  S
C501        N503   1.157       .  T
C502        N504   1.157       .  T
C505        C506   1.407       .  A
C505        C510   1.414       .  A
C506        C507   1.399       .  A
C506        H511   1.085       .  S
C507        C508   1.408       .  A
C507        C514   1.444       .  S
C508        C509   1.402       .  A
C509        C510   1.399       .  A
C509        H512   1.085       .  S
C510        C513   1.444       .  S
C513        N515   1.157       .  T
C514        N516   1.157       .  T
C517        C518   1.409       .  A
C517        C522   1.418       .  A
C518        C519   1.402       .  A
C518        H523   1.084       .  S
C519        C520   1.409       .  A
C519        C526   1.444       .  S
C520        C521   1.401       .  A
C521        C522   1.401       .  A
C521        H524   1.085       .  S
C522        C525   1.445   1_554  S
C525        N527   1.157       .  T
C526        N528   1.157       .  T
C529        C530   1.401       .  A
C529        C534   1.407       .  A
C530        C531   1.402       .  A
C530        H535   1.085       .  S
C531        C532   1.416       .  A
C531        C538   1.444       .  S
C532        C533   1.406       .  A
C533        C534   1.398       .  A
C533        H536   1.085       .  S
C534        C537   1.445       .  S
C537        N539   1.157       .  T
C538        N540   1.157       .  T
C541        C542   1.407       .  A
C541        C546   1.416       .  A
C542        C543   1.403       .  A
C542        H547   1.084       .  S
C543        C544   1.413       .  A
C543        C550   1.444       .  S
C544        C545   1.402       .  A
C545        C546   1.399       .  A
C545        H548   1.085       .  S
C546        C549   1.444       .  S
C549        N551   1.157       .  T
C550        N552   1.157       .  T
C553        C554   1.402       .  A
C553        C558   1.410       .  A
C554        C555   1.398       .  A
C554        H559   1.085       .  S
C555        C556   1.413       .  A
C555        C562   1.445       .  S
C556        C557   1.406       .  A
C557        C558   1.402       .  A
C557        H560   1.085       .  S
C558        C561   1.444       .  S
C561        N563   1.157       .  T
C562        N564   1.157       .  T
C565        C566   1.407       .  A
C565        C570   1.415       .  A
C566        C567   1.401       .  A
C566        H571   1.085       .  S
C567        C568   1.412       .  A
C567        C574   1.445       .  S
C568        C569   1.402       .  A
C569        C570   1.398       .  A
C569        H572   1.085       .  S
C570        C573   1.444       .  S
C573        N575   1.157       .  T
C574        N576   1.157       .  T
C577        C578   1.408       .  A
C577        C582   1.416       .  A
C578        C579   1.399       .  A
C578        H583   1.084       .  S
C579        C580   1.410       .  A
C579        C586   1.445       .  S
C580        C581   1.402       .  A
C581        C582   1.397       .  A
C581        H584   1.085       .  S
C582        C585   1.444       .  S
C585        N587   1.157       .  T
C586        N588   1.157   1_455  T
C589        C590   1.403       .  A
C589        C594   1.411       .  A
C590        C591   1.401       .  A
C590        H595   1.084       .  S
C591        C592   1.418       .  A
C591        C598   1.445       .  S
C592        C593   1.406       .  A
C593        C594   1.400       .  A
C593        H596   1.085       .  S
C594        C597   1.444       .  S
C597        N599   1.157   1_455  T
C598        N600   1.157       .  T
C601        C602   1.406       .  A
C601        C606   1.417       .  A
C602        C603   1.396       .  A
C602        H607   1.085       .  S
C603        C604   1.409       .  A
C603        C610   1.445       .  S
C604        C605   1.403       .  A
C605        C606   1.402       .  A
C605        H608   1.085       .  S
C606        C609   1.444       .  S
C609        N611   1.157       .  T
C610        N612   1.157       .  T
C613        C614   1.408       .  A
C613        C618   1.415       .  A
C614        C615   1.401       .  A
C614        H619   1.085       .  S
C615        C616   1.410       .  A
C615        C622   1.444       .  S
C616        C617   1.403       .  A
C617        C618   1.401       .  A
C617        H620   1.085       .  S
C618        C621   1.444       .  S
C621        N623   1.157       .  T
C622        N624   1.157       .  T
C625        C626   1.408       .  A
C625        C630   1.416       .  A
C626        C627   1.404       .  A
C626        H631   1.084       .  S
C627        C628   1.412       .  A
C627        C634   1.444       .  S
C628        C629   1.402       .  A
C629        C630   1.394       .  A
C629        H632   1.085       .  S
C630        C633   1.445       .  S
C633        N635   1.157       .  T
C634        N636   1.157       .  T
C637        C638   1.403       .  A
C637        C642   1.413       .  A
C638        C639   1.402       .  A
C638        H643   1.085       .  S
C639        C640   1.417       .  A
C639        C646   1.444       .  S
C640        C641   1.408       .  A
C641        C642   1.401       .  A
C641        H644   1.084       .  S
C642        C645   1.445       .  S
C645        N647   1.157       .  T
C646        N648   1.157       .  T
C649        C650   1.405       .  A
C649        C654   1.414       .  A
C650        C651   1.403       .  A
C650        H655   1.085       .  S
C651        C652   1.417       .  A
C651        C658   1.444       .  S
C652        C653   1.407       .  A
C653        C654   1.400       .  A
C653        H656   1.084       .  S
C654        C657   1.443       .  S
C657        N659   1.157       .  T
C658        N660   1.157       .  T
C661        C662   1.403       .  A
C661        C666   1.412       .  A
C662        C663   1.402       .  A
C662        H667   1.085       .  S
C663        C664   1.415       .  A
C663        C670   1.443       .  S
C664        C665   1.404       .  A
C665        C666   1.398       .  A
C665        H668   1.085       .  S
C666        C669   1.445       .  S
C669        N671   1.157       .  T
C670        N672   1.157       .  T
C673        C674   1.398       .  A
C673        C678   1.411       .  A
C674        C675   1.400       .  A
C674        H679   1.084       .  S
C675        C676   1.420       .  A
C675        C682   1.444       .  S
C676        C677   1.408       .  A
C677        C678   1.402       .  A
C677        H680   1.084       .  S
C678        C681   1.444       .  S
C681        N683   1.157       .  T
C682        N684   1.157       .  T
C685        C686   1.409       .  A
C685        C690   1.416       .  A
C686        C687   1.399       .  A
C686        H691   1.084       .  S
C687        C688   1.409       .  A
C687        C694   1.444       .  S
C688        C689   1.401       .  A
C689        C690   1.400       .  A
C689        H692   1.085       .  S
C690        C693   1.444       .  S
C693        N695   1.157       .  T
C694        N696   1.157       .  T
C697        C698   1.408       .  A
C697        C702   1.418       .  A
C698        C699   1.406       .  A
C698        H703   1.084       .  S
C699        C700   1.413       .  A
C699        C706   1.444       .  S
C700        C701   1.402       .  A
C701        C702   1.400       .  A
C701        H704   1.085       .  S
C702        C705   1.445       .  S
C705        N707   1.157       .  T
C706        N708   1.157       .  T
C709        C710   1.404       .  A
C709        C714   1.412       .  A
C710        C711   1.397       .  A
C710        H715   1.085       .  S
C711        C712   1.407       .  A
C711        C718   1.444       .  S
C712        C713   1.400       .  A
C713        C714   1.399       .  A
C713        H716   1.083       .  S
C714        C717   1.444       .  S
C717        N719   1.157       .  T
C718        N720   1.157       .  T
C721        C722   1.403       .  A
C721        C726   1.412       .  A
C722        C723   1.398       .  A
C722        H727   1.085       .  S
C723        C724   1.410       .  A
C723        C730   1.445       .  S
C724        C725   1.402       .  A
C725        C726   1.403       .  A
C725        H728   1.085       .  S
C726        C729   1.443       .  S
C729        N731   1.157       .  T
C730        N732   1.157       .  T
C733        C734   1.404       .  A
C733        C738   1.409       .  A
C734        C735   1.405       .  A
C734        H739   1.085       .  S
C735        C736   1.412       .  A
C735        C742   1.444       .  S
C736        C737   1.403       .  A
C737        C738   1.398       .  A
C737        H740   1.085       .  S
C738        C741   1.444       .  S
C741        N743   1.157       .  T
C742        N744   1.157       .  T
C745        C746   1.398       .  A
C745        C750   1.408       .  A
C746        C747   1.397       .  A
C746        H751   1.085       .  S
C747        C748   1.414       .  A
C747        C754   1.444       .  S
C748        C749   1.407       .  A
C749        C750   1.398       .  A
C749        H752   1.085       .  S
C750        C753   1.445       .  S
C753        N755   1.157       .  T
C754        N756   1.157       .  T
C757        C758   1.406       .  A
C757        C762   1.413       .  A
C758        C759   1.397       .  A
C758        H763   1.085       .  S
C759        C760   1.409       .  A
C759        C766   1.444       .  S
C760        C761   1.402       .  A
C761        C762   1.398       .  A
C761        H764   1.085       .  S
C762        C765   1.444       .  S
C765        N767   1.157       .  T
C766        N768   1.157       .  T
C769        C770   1.408       .  A
C769        C774   1.417       .  A
C770        C771   1.401       .  A
C770        H775   1.084       .  S
C771        C772   1.407       .  A
C771        C778   1.444       .  S
C772        C773   1.400       .  A
C773        C774   1.400       .  A
C773        H776   1.085       .  S
C774        C777   1.445       .  S
C777        N779   1.157       .  T
C778        N780   1.157       .  T
C781        C782   1.403       .  A
C781        C786   1.416       .  A
C782        C783   1.394       .  A
C782        H787   1.085       .  S
C783        C784   1.411       .  A
C783        C790   1.445       .  S
C784        C785   1.404       .  A
C785        C786   1.402       .  A
C785        H788   1.085       .  S
C786        C789   1.444       .  S
C789        N791   1.157       .  T
C790        N792   1.157       .  T
C793        C794   1.405       .  A
C793        C798   1.410       .  A
C794        C795   1.402       .  A
C794        H799   1.085       .  S
C795        C796   1.416       .  A
C795        C802   1.444       .  S
C796        C797   1.408       .  A
C797        C798   1.399       .  A
C797        H800   1.085       .  S
C798        C801   1.444       .  S
C801        N803   1.157       .  T
C802        N804   1.157       .  T
C805        C806   1.408       .  A
C805        C810   1.420       .  A
C806        C807   1.402       .  A
C806        H811   1.084       .  S
C807        C808   1.408       .  A
C807        C814   1.444       .  S
C808        C809   1.400       .  A
C809        C810   1.402       .  A
C809        H812   1.085       .  S
C810        C813   1.444       .  S
C813        N815   1.157       .  T
C814        N816   1.157       .  T
C817        C818   1.407       .  A
C817        C822   1.417       .  A
C818        C819   1.398       .  A
C818        H823   1.085       .  S
C819        C820   1.412       .  A
C819        C826   1.443       .  S
C820        C821   1.406       .  A
C821        C822   1.402       .  A
C821        H824   1.085       .  S
C822        C825   1.444       .  S
C825        N827   1.157       .  T
C826        N828   1.157       .  T
C829        C830   1.405       .  A
C829        C834   1.414       .  A
C830        C831   1.401       .  A
C830        H835   1.085       .  S
C831        C832   1.412       .  A
C831        C838   1.444       .  S
C832        C833   1.403       .  A
C833        C834   1.397       .  A
C833        H836   1.085       .  S
C834        C837   1.445       .  S
C837        N839   1.157       .  T
C838        N840   1.157       .  T
C841        C842   1.402       .  A
C841        C846   1.406       .  A
C842        C843   1.402       .  A
C842        H847   1.085       .  S
C843        C844   1.414       .  A
C843        C850   1.444       .  S
C844        C845   1.407       .  A
C845        C846   1.396       .  A
C845        H848   1.085       .  S
C846        C849   1.445       .  S
C849        N851   1.157       .  T
C850        N852   1.157       .  T
C853        C854   1.405       .  A
C853        C858   1.413       .  A
C854        C855   1.400       .  A
C854        H859   1.085       .  S
C855        C856   1.410       .  A
C855        C862   1.444       .  S
C856        C857   1.402       .  A
C857        C858   1.400       .  A
C857        H860   1.085       .  S
C858        C861   1.444       .  S
C861        N863   1.157       .  T
C862        N864   1.157       .  T
C865        C866   1.408       .  A
C865        C870   1.414       .  A
C866        C867   1.405       .  A
C866        H871   1.084       .  S
C867        C868   1.410       .  A
C867        C874   1.444       .  S
C868        C869   1.402       .  A
C869        C870   1.397       .  A
C869        H872   1.085       .  S
C870        C873   1.443       .  S
C873        N875   1.157       .  T
C874        N876   1.157       .  T
C877        C878   1.407       .  A
C877        C882   1.416       .  A
C878        C879   1.403       .  A
C878        H883   1.085       .  S
C879        C880   1.412       .  A
C879        C886   1.444       .  S
C880        C881   1.404       .  A
C881        C882   1.403       .  A
C881        H884   1.085       .  S
C882        C885   1.444       .  S
C885        N887   1.157       .  T
C886        N888   1.157       .  T
C889        C890   1.408       .  A
C889        C894   1.418       .  A
C890        C891   1.404       .  A
C890        H895   1.084       .  S
C891        C892   1.412       .  A
C891        C898   1.444       .  S
C892        C893   1.402       .  A
C893        C894   1.398       .  A
C893        H896   1.085       .  S
C894        C897   1.443       .  S
C897        N899   1.157       .  T
C898        N900   1.157       .  T
C901        C902   1.401       .  A
C901        C906   1.413       .  A
C902        C903   1.394       .  A
C902        H907   1.085       .  S
C903        C904   1.409       .  A
C903        C910   1.444       .  S
C904        C905   1.404       .  A
C905        C906   1.405       .  A
C905        H908   1.084       .  S
C906        C909   1.444       .  S
C909        N911   1.157       .  T
C910        N912   1.157       .  T
C913        C914   1.406       .  A
C913        C918   1.417       .  A
C914        C915   1.401       .  A
C914        H919   1.085       .  S
C915        C916   1.413       .  A
C915        C922   1.445       .  S
C916        C917   1.402       .  A
C917        C918   1.402       .  A
C917        H920   1.084       .  S
C918        C921   1.443       .  S
C921        N923   1.157       .  T
C922        N924   1.157       .  T
C925        C926   1.403       .  A
C925        C930   1.409       .  A
C926        C927   1.400       .  A
C926        H931   1.085       .  S
C927        C928   1.407       .  A
C927        C934   1.443       .  S
C928        C929   1.402       .  A
C929        C930   1.398       .  A
C929        H932   1.085       .  S
C930        C933   1.444       .  S
C933        N935   1.157       .  T
C934        N936   1.157       .  T
C937        C938   1.410       .  A
C937        C942   1.415       .  A
C938        C939   1.403       .  A
C938        H943   1.084       .  S
C939        C940   1.411       .  A
C939        C946   1.444       .  S
C940        C941   1.404       .  A
C941        C942   1.397       .  A
C941        H944   1.084       .  S
C942        C945   1.444       .  S
C945        N947   1.157       .  T
C946        N948   1.157       .  T
C949        C950   1.406       .  A
C949        C954   1.416       .  A
C950        C951   1.401       .  A
C950        H955   1.085       .  S
C951        C952   1.412       .  A
C951        C958   1.445       .  S
C952        C953   1.402       .  A
C953        C954   1.403       .  A
C953        H956   1.085       .  S
C954        C957   1.443       .  S
C957        N959   1.157       .  T
C958        N960   1.157       .  T
